*SPEF "IEEE 1481-1998"
*DESIGN "RCA_size128"
*DATE "Thu Jun  3 13:05:05 2021"
*VENDOR "Cadence Design Systems, Inc."
*PROGRAM "Innovus"
*VERSION "17.11-s080_1"
*DESIGN_FLOW "COUPLING C" "PIN_CAP NONE" "NAME_SCOPE LOCAL"
*DIVIDER /
*DELIMITER :
*BUS_DELIMITER []
*T_UNIT 1 NS
*C_UNIT 1 PF
*R_UNIT 1 OHM
*L_UNIT 1 HENRY

// MMMC spef file for corner 'standard'

*NAME_MAP

*1 fa_i_1/FE_RN_73_0
*2 fa_i_1/FE_RN_71_0
*3 fa_i_1/FE_RN_70_0
*4 fa_i_13/FE_RN_69_0
*5 fa_i_126/FE_RN_68_0
*6 fa_i_125/FE_RN_67_0
*7 fa_i_123/FE_RN_66_0
*8 fa_i_120/FE_RN_65_0
*9 fa_i_119/FE_RN_64_0
*10 fa_i_121/FE_RN_63_0
*11 fa_i_20/FE_RN_62_0
*12 fa_i_118/FE_RN_61_0
*13 fa_i_116/FE_RN_60_0
*14 fa_i_115/FE_RN_59_0
*15 fa_i_23/FE_RN_58_0
*16 fa_i_22/FE_RN_57_0
*17 fa_i_114/FE_RN_56_0
*18 fa_i_113/FE_RN_55_0
*19 fa_i_110/FE_RN_54_0
*20 fa_i_111/FE_RN_53_0
*21 fa_i_108/FE_RN_52_0
*22 fa_i_109/FE_RN_51_0
*23 fa_i_104/FE_RN_50_0
*24 fa_i_106/FE_RN_49_0
*25 fa_i_28/FE_RN_48_0
*26 fa_i_105/FE_RN_47_0
*27 fa_i_38/FE_RN_46_0
*28 fa_i_100/FE_RN_45_0
*29 fa_i_85/FE_RN_44_0
*30 fa_i_71/FE_RN_43_0
*31 fa_i_103/FE_RN_42_0
*32 fa_i_60/FE_RN_41_0
*33 fa_i_64/FE_RN_40_0
*34 fa_i_76/FE_RN_39_0
*35 fa_i_29/FE_RN_38_0
*36 fa_i_63/FE_RN_37_0
*37 fa_i_62/FE_RN_36_0
*38 fa_i_68/FE_RN_35_0
*39 fa_i_96/FE_RN_34_0
*40 fa_i_77/FE_RN_33_0
*41 fa_i_78/FE_RN_32_0
*42 fa_i_82/FE_RN_31_0
*43 fa_i_99/FE_RN_30_0
*44 fa_i_70/FE_RN_29_0
*45 fa_i_74/FE_RN_28_0
*46 fa_i_89/FE_RN_27_0
*47 fa_i_59/FE_RN_26_0
*48 fa_i_67/FE_RN_25_0
*49 fa_i_79/FE_RN_24_0
*50 fa_i_83/FE_RN_23_0
*51 fa_i_86/FE_RN_22_0
*52 fa_i_94/FE_RN_21_0
*53 fa_i_72/FE_RN_20_0
*54 fa_i_88/FE_RN_19_0
*55 fa_i_90/FE_RN_18_0
*56 fa_i_73/FE_RN_17_0
*57 fa_i_58/FE_RN_16_0
*58 fa_i_75/FE_RN_15_0
*59 fa_i_66/FE_RN_14_0
*60 fa_i_57/FE_RN_13_0
*61 fa_i_61/FE_RN_12_0
*62 fa_i_95/FE_RN_11_0
*63 fa_i_56/FE_RN_10_0
*64 fa_i_91/FE_RN_9_0
*65 fa_i_81/FE_RN_8_0
*66 fa_i_93/FE_RN_7_0
*67 fa_i_98/FE_RN_6_0
*68 fa_i_80/FE_RN_5_0
*69 fa_i_69/FE_RN_4_0
*70 fa_i_101/FE_RN_3_0
*71 fa_i_42/FE_RN_2_0
*72 fa_i_55/FE_RN_1_0
*73 fa_i_84/FE_RN_0_0
*74 a[127]
*75 a[126]
*76 a[125]
*77 a[124]
*78 a[123]
*79 a[122]
*80 a[121]
*81 a[120]
*82 a[119]
*83 a[118]
*84 a[117]
*85 a[116]
*86 a[115]
*87 a[114]
*88 a[113]
*89 a[112]
*90 a[111]
*91 a[110]
*92 a[109]
*93 a[108]
*94 a[107]
*95 a[106]
*96 a[105]
*97 a[104]
*98 a[103]
*99 a[102]
*100 a[101]
*101 a[100]
*102 a[99]
*103 a[98]
*104 a[97]
*105 a[96]
*106 a[95]
*107 a[94]
*108 a[93]
*109 a[92]
*110 a[91]
*111 a[90]
*112 a[89]
*113 a[88]
*114 a[87]
*115 a[86]
*116 a[85]
*117 a[84]
*118 a[83]
*119 a[82]
*120 a[81]
*121 a[80]
*122 a[79]
*123 a[78]
*124 a[77]
*125 a[76]
*126 a[75]
*127 a[74]
*128 a[73]
*129 a[72]
*130 a[71]
*131 a[70]
*132 a[69]
*133 a[68]
*134 a[67]
*135 a[66]
*136 a[65]
*137 a[64]
*138 a[63]
*139 a[62]
*140 a[61]
*141 a[60]
*142 a[59]
*143 a[58]
*144 a[57]
*145 a[56]
*146 a[55]
*147 a[54]
*148 a[53]
*149 a[52]
*150 a[51]
*151 a[50]
*152 a[49]
*153 a[48]
*154 a[47]
*155 a[46]
*156 a[45]
*157 a[44]
*158 a[43]
*159 a[42]
*160 a[41]
*161 a[40]
*162 a[39]
*163 a[38]
*164 a[37]
*165 a[36]
*166 a[35]
*167 a[34]
*168 a[33]
*169 a[32]
*170 a[31]
*171 a[30]
*172 a[29]
*173 a[28]
*174 a[27]
*175 a[26]
*176 a[25]
*177 a[24]
*178 a[23]
*179 a[22]
*180 a[21]
*181 a[20]
*182 a[19]
*183 a[18]
*184 a[17]
*185 a[16]
*186 a[15]
*187 a[14]
*188 a[13]
*189 a[12]
*190 a[11]
*191 a[10]
*192 a[9]
*193 a[8]
*194 a[7]
*195 a[6]
*196 a[5]
*197 a[4]
*198 a[3]
*199 a[2]
*200 a[1]
*201 a[0]
*202 b[127]
*203 b[126]
*204 b[125]
*205 b[124]
*206 b[123]
*207 b[122]
*208 b[121]
*209 b[120]
*210 b[119]
*211 b[118]
*212 b[117]
*213 b[116]
*214 b[115]
*215 b[114]
*216 b[113]
*217 b[112]
*218 b[111]
*219 b[110]
*220 b[109]
*221 b[108]
*222 b[107]
*223 b[106]
*224 b[105]
*225 b[104]
*226 b[103]
*227 b[102]
*228 b[101]
*229 b[100]
*230 b[99]
*231 b[98]
*232 b[97]
*233 b[96]
*234 b[95]
*235 b[94]
*236 b[93]
*237 b[92]
*238 b[91]
*239 b[90]
*240 b[89]
*241 b[88]
*242 b[87]
*243 b[86]
*244 b[85]
*245 b[84]
*246 b[83]
*247 b[82]
*248 b[81]
*249 b[80]
*250 b[79]
*251 b[78]
*252 b[77]
*253 b[76]
*254 b[75]
*255 b[74]
*256 b[73]
*257 b[72]
*258 b[71]
*259 b[70]
*260 b[69]
*261 b[68]
*262 b[67]
*263 b[66]
*264 b[65]
*265 b[64]
*266 b[63]
*267 b[62]
*268 b[61]
*269 b[60]
*270 b[59]
*271 b[58]
*272 b[57]
*273 b[56]
*274 b[55]
*275 b[54]
*276 b[53]
*277 b[52]
*278 b[51]
*279 b[50]
*280 b[49]
*281 b[48]
*282 b[47]
*283 b[46]
*284 b[45]
*285 b[44]
*286 b[43]
*287 b[42]
*288 b[41]
*289 b[40]
*290 b[39]
*291 b[38]
*292 b[37]
*293 b[36]
*294 b[35]
*295 b[34]
*296 b[33]
*297 b[32]
*298 b[31]
*299 b[30]
*300 b[29]
*301 b[28]
*302 b[27]
*303 b[26]
*304 b[25]
*305 b[24]
*306 b[23]
*307 b[22]
*308 b[21]
*309 b[20]
*310 b[19]
*311 b[18]
*312 b[17]
*313 b[16]
*314 b[15]
*315 b[14]
*316 b[13]
*317 b[12]
*318 b[11]
*319 b[10]
*320 b[9]
*321 b[8]
*322 b[7]
*323 b[6]
*324 b[5]
*325 b[4]
*326 b[3]
*327 b[2]
*328 b[1]
*329 b[0]
*330 sum[127]
*331 sum[126]
*332 sum[125]
*333 sum[124]
*334 sum[123]
*335 sum[122]
*336 sum[121]
*337 sum[120]
*338 sum[119]
*339 sum[118]
*340 sum[117]
*341 sum[116]
*342 sum[115]
*343 sum[114]
*344 sum[113]
*345 sum[112]
*346 sum[111]
*347 sum[110]
*348 sum[109]
*349 sum[108]
*350 sum[107]
*351 sum[106]
*352 sum[105]
*353 sum[104]
*354 sum[103]
*355 sum[102]
*356 sum[101]
*357 sum[100]
*358 sum[99]
*359 sum[98]
*360 sum[97]
*361 sum[96]
*362 sum[95]
*363 sum[94]
*364 sum[93]
*365 sum[92]
*366 sum[91]
*367 sum[90]
*368 sum[89]
*369 sum[88]
*370 sum[87]
*371 sum[86]
*372 sum[85]
*373 sum[84]
*374 sum[83]
*375 sum[82]
*376 sum[81]
*377 sum[80]
*378 sum[79]
*379 sum[78]
*380 sum[77]
*381 sum[76]
*382 sum[75]
*383 sum[74]
*384 sum[73]
*385 sum[72]
*386 sum[71]
*387 sum[70]
*388 sum[69]
*389 sum[68]
*390 sum[67]
*391 sum[66]
*392 sum[65]
*393 sum[64]
*394 sum[63]
*395 sum[62]
*396 sum[61]
*397 sum[60]
*398 sum[59]
*399 sum[58]
*400 sum[57]
*401 sum[56]
*402 sum[55]
*403 sum[54]
*404 sum[53]
*405 sum[52]
*406 sum[51]
*407 sum[50]
*408 sum[49]
*409 sum[48]
*410 sum[47]
*411 sum[46]
*412 sum[45]
*413 sum[44]
*414 sum[43]
*415 sum[42]
*416 sum[41]
*417 sum[40]
*418 sum[39]
*419 sum[38]
*420 sum[37]
*421 sum[36]
*422 sum[35]
*423 sum[34]
*424 sum[33]
*425 sum[32]
*426 sum[31]
*427 sum[30]
*428 sum[29]
*429 sum[28]
*430 sum[27]
*431 sum[26]
*432 sum[25]
*433 sum[24]
*434 sum[23]
*435 sum[22]
*436 sum[21]
*437 sum[20]
*438 sum[19]
*439 sum[18]
*440 sum[17]
*441 sum[16]
*442 sum[15]
*443 sum[14]
*444 sum[13]
*445 sum[12]
*446 sum[11]
*447 sum[10]
*448 sum[9]
*449 sum[8]
*450 sum[7]
*451 sum[6]
*452 sum[5]
*453 sum[4]
*454 sum[3]
*455 sum[2]
*456 sum[1]
*457 sum[0]
*458 c_out
*459 temp[127]
*460 temp[126]
*461 temp[125]
*462 temp[124]
*463 temp[123]
*464 temp[122]
*465 temp[121]
*466 temp[120]
*467 temp[119]
*468 temp[118]
*469 temp[117]
*470 temp[116]
*471 temp[115]
*472 temp[114]
*473 temp[113]
*474 temp[112]
*475 temp[111]
*476 temp[110]
*477 temp[109]
*478 temp[108]
*479 temp[107]
*480 temp[106]
*481 temp[105]
*482 temp[104]
*483 temp[103]
*484 temp[102]
*485 temp[101]
*486 temp[100]
*487 temp[99]
*488 temp[98]
*489 temp[97]
*490 temp[96]
*491 temp[95]
*492 temp[94]
*493 temp[93]
*494 temp[92]
*495 temp[91]
*496 temp[90]
*497 temp[89]
*498 temp[88]
*499 temp[87]
*500 temp[86]
*501 temp[85]
*502 temp[84]
*503 temp[83]
*504 temp[82]
*505 temp[81]
*506 temp[80]
*507 temp[79]
*508 temp[78]
*509 temp[77]
*510 temp[76]
*511 temp[75]
*512 temp[74]
*513 temp[73]
*514 temp[72]
*515 temp[71]
*516 temp[70]
*517 temp[69]
*518 temp[68]
*519 temp[67]
*520 temp[66]
*521 temp[65]
*522 temp[64]
*523 temp[63]
*524 temp[62]
*525 temp[61]
*526 temp[60]
*527 temp[59]
*528 temp[58]
*529 temp[57]
*530 temp[56]
*531 temp[55]
*532 temp[54]
*533 temp[53]
*534 temp[52]
*535 temp[51]
*536 temp[50]
*537 temp[49]
*538 temp[48]
*539 temp[47]
*540 temp[46]
*541 temp[45]
*542 temp[44]
*543 temp[43]
*544 temp[42]
*545 temp[41]
*546 temp[40]
*547 temp[39]
*548 temp[38]
*549 temp[37]
*550 temp[36]
*551 temp[35]
*552 temp[34]
*553 temp[33]
*554 temp[32]
*555 temp[31]
*556 temp[30]
*557 temp[29]
*558 temp[28]
*559 temp[27]
*560 temp[26]
*561 temp[25]
*562 temp[24]
*563 temp[23]
*564 temp[22]
*565 temp[21]
*566 temp[20]
*567 temp[19]
*568 temp[18]
*569 temp[17]
*570 temp[16]
*571 temp[15]
*572 temp[14]
*573 temp[13]
*574 temp[12]
*575 temp[11]
*576 temp[10]
*577 temp[9]
*578 temp[8]
*579 temp[7]
*580 temp[6]
*581 temp[5]
*582 temp[4]
*583 temp[3]
*584 temp[2]
*585 temp[1]
*586 fa_i_0/n2
*587 fa_i_0/n1
*588 fa_i_0/n3
*589 fa_i_0/n4
*590 fa_i_0/n5
*591 fa_i_1/n2
*592 fa_i_1/n3
*593 fa_i_1/n4
*594 fa_i_1/n5
*595 fa_i_2/n2
*596 fa_i_2/n3
*597 fa_i_2/n4
*598 fa_i_2/n5
*599 fa_i_3/n2
*600 fa_i_3/n3
*601 fa_i_3/n4
*602 fa_i_3/n5
*603 fa_i_4/n2
*604 fa_i_4/n3
*605 fa_i_4/n4
*606 fa_i_4/n5
*607 fa_i_5/n2
*608 fa_i_5/n3
*609 fa_i_5/n4
*610 fa_i_5/n5
*611 fa_i_6/n2
*612 fa_i_6/n3
*613 fa_i_6/n4
*614 fa_i_6/n5
*615 fa_i_7/n2
*616 fa_i_7/n3
*617 fa_i_7/n4
*618 fa_i_7/n5
*619 fa_i_8/n2
*620 fa_i_8/n3
*621 fa_i_8/n4
*622 fa_i_8/n5
*623 fa_i_9/n2
*624 fa_i_9/n3
*625 fa_i_9/n4
*626 fa_i_9/n5
*627 fa_i_10/n2
*628 fa_i_10/n3
*629 fa_i_10/n4
*630 fa_i_10/n5
*631 fa_i_11/n2
*632 fa_i_11/n3
*633 fa_i_11/n4
*634 fa_i_11/n5
*635 fa_i_12/n2
*636 fa_i_12/n3
*637 fa_i_12/n4
*638 fa_i_12/n5
*639 fa_i_13/n2
*640 fa_i_13/n3
*641 fa_i_13/n4
*642 fa_i_13/n5
*643 fa_i_14/n1
*644 fa_i_14/n2
*645 fa_i_14/n3
*646 fa_i_14/n4
*647 fa_i_15/n2
*648 fa_i_15/n3
*649 fa_i_15/n4
*650 fa_i_15/n5
*651 fa_i_16/n2
*652 fa_i_16/n3
*653 fa_i_16/n4
*654 fa_i_16/n5
*655 fa_i_17/n2
*656 fa_i_17/n3
*657 fa_i_17/n4
*658 fa_i_17/n5
*659 fa_i_18/n2
*660 fa_i_18/n3
*661 fa_i_18/n4
*662 fa_i_18/n5
*663 fa_i_19/n2
*664 fa_i_19/n3
*665 fa_i_19/n4
*666 fa_i_19/n5
*667 fa_i_20/n2
*668 fa_i_20/n3
*669 fa_i_20/n4
*670 fa_i_20/n5
*671 fa_i_21/n1
*672 fa_i_21/n2
*673 fa_i_21/n3
*674 fa_i_21/n4
*675 fa_i_22/n2
*676 fa_i_22/n3
*677 fa_i_22/n4
*678 fa_i_22/n5
*679 fa_i_23/n1
*680 fa_i_23/n2
*681 fa_i_23/n3
*682 fa_i_23/n4
*683 fa_i_24/n1
*684 fa_i_24/n2
*685 fa_i_24/n3
*686 fa_i_24/n4
*687 fa_i_25/n2
*688 fa_i_25/n3
*689 fa_i_25/n4
*690 fa_i_25/n5
*691 fa_i_26/n2
*692 fa_i_26/n3
*693 fa_i_26/n4
*694 fa_i_26/n5
*695 fa_i_27/n2
*696 fa_i_27/n3
*697 fa_i_27/n4
*698 fa_i_27/n5
*699 fa_i_28/n2
*700 fa_i_28/n3
*701 fa_i_28/n4
*702 fa_i_28/n5
*703 fa_i_29/n1
*704 fa_i_29/n2
*705 fa_i_29/n3
*706 fa_i_29/n4
*707 fa_i_30/n1
*708 fa_i_30/n2
*709 fa_i_30/n3
*710 fa_i_30/n4
*711 fa_i_31/n2
*712 fa_i_31/n3
*713 fa_i_31/n4
*714 fa_i_31/n5
*715 fa_i_32/n2
*716 fa_i_32/n3
*717 fa_i_32/n4
*718 fa_i_32/n5
*719 fa_i_33/n2
*720 fa_i_33/n3
*721 fa_i_33/n4
*722 fa_i_33/n5
*723 fa_i_34/n2
*724 fa_i_34/n3
*725 fa_i_34/n4
*726 fa_i_34/n5
*727 fa_i_35/n2
*728 fa_i_35/n3
*729 fa_i_35/n4
*730 fa_i_35/n5
*731 fa_i_36/n2
*732 fa_i_36/n3
*733 fa_i_36/n4
*734 fa_i_36/n5
*735 fa_i_37/n2
*736 fa_i_37/n3
*737 fa_i_37/n4
*738 fa_i_37/n5
*739 fa_i_38/n2
*740 fa_i_38/n3
*741 fa_i_38/n4
*742 fa_i_38/n5
*743 fa_i_39/n1
*744 fa_i_39/n2
*745 fa_i_39/n3
*746 fa_i_39/n4
*747 fa_i_40/n2
*748 fa_i_40/n3
*749 fa_i_40/n4
*750 fa_i_40/n5
*751 fa_i_41/n2
*752 fa_i_41/n3
*753 fa_i_41/n4
*754 fa_i_41/n5
*755 fa_i_42/n2
*756 fa_i_42/n3
*757 fa_i_42/n4
*758 fa_i_42/n5
*759 fa_i_43/n1
*760 fa_i_43/n2
*761 fa_i_43/n3
*762 fa_i_43/n4
*763 fa_i_44/n2
*764 fa_i_44/n3
*765 fa_i_44/n4
*766 fa_i_44/n5
*767 fa_i_45/n2
*768 fa_i_45/n3
*769 fa_i_45/n4
*770 fa_i_45/n5
*771 fa_i_46/n2
*772 fa_i_46/n3
*773 fa_i_46/n4
*774 fa_i_46/n5
*775 fa_i_47/n2
*776 fa_i_47/n3
*777 fa_i_47/n4
*778 fa_i_47/n5
*779 fa_i_48/n2
*780 fa_i_48/n3
*781 fa_i_48/n4
*782 fa_i_48/n5
*783 fa_i_49/n2
*784 fa_i_49/n3
*785 fa_i_49/n4
*786 fa_i_49/n5
*787 fa_i_50/n2
*788 fa_i_50/n3
*789 fa_i_50/n4
*790 fa_i_50/n5
*791 fa_i_51/n2
*792 fa_i_51/n3
*793 fa_i_51/n4
*794 fa_i_51/n5
*795 fa_i_52/n2
*796 fa_i_52/n3
*797 fa_i_52/n4
*798 fa_i_52/n5
*799 fa_i_53/n2
*800 fa_i_53/n3
*801 fa_i_53/n4
*802 fa_i_53/n5
*803 fa_i_54/n2
*804 fa_i_54/n3
*805 fa_i_54/n4
*806 fa_i_54/n5
*807 fa_i_55/n2
*808 fa_i_55/n3
*809 fa_i_55/n4
*810 fa_i_55/n5
*811 fa_i_56/n1
*812 fa_i_56/n2
*813 fa_i_56/n3
*814 fa_i_56/n4
*815 fa_i_57/n1
*816 fa_i_57/n2
*817 fa_i_57/n3
*818 fa_i_57/n4
*819 fa_i_58/n1
*820 fa_i_58/n2
*821 fa_i_58/n3
*822 fa_i_58/n4
*823 fa_i_59/n1
*824 fa_i_59/n2
*825 fa_i_59/n3
*826 fa_i_59/n4
*827 fa_i_60/n1
*828 fa_i_60/n2
*829 fa_i_60/n3
*830 fa_i_60/n4
*831 fa_i_61/n1
*832 fa_i_61/n2
*833 fa_i_61/n3
*834 fa_i_61/n4
*835 fa_i_62/n1
*836 fa_i_62/n2
*837 fa_i_62/n3
*838 fa_i_62/n4
*839 fa_i_63/n1
*840 fa_i_63/n2
*841 fa_i_63/n3
*842 fa_i_63/n4
*843 fa_i_64/n1
*844 fa_i_64/n2
*845 fa_i_64/n3
*846 fa_i_64/n4
*847 fa_i_65/n1
*848 fa_i_65/n2
*849 fa_i_65/n3
*850 fa_i_65/n4
*851 fa_i_66/n2
*852 fa_i_66/n3
*853 fa_i_66/n4
*854 fa_i_66/n5
*855 fa_i_67/n1
*856 fa_i_67/n2
*857 fa_i_67/n3
*858 fa_i_67/n4
*859 fa_i_68/n1
*860 fa_i_68/n2
*861 fa_i_68/n3
*862 fa_i_68/n4
*863 fa_i_69/n1
*864 fa_i_69/n2
*865 fa_i_69/n3
*866 fa_i_69/n4
*867 fa_i_70/n1
*868 fa_i_70/n2
*869 fa_i_70/n3
*870 fa_i_70/n4
*871 fa_i_71/n1
*872 fa_i_71/n2
*873 fa_i_71/n3
*874 fa_i_71/n4
*875 fa_i_72/n1
*876 fa_i_72/n2
*877 fa_i_72/n3
*878 fa_i_72/n4
*879 fa_i_73/n1
*880 fa_i_73/n2
*881 fa_i_73/n3
*882 fa_i_73/n4
*883 fa_i_74/n1
*884 fa_i_74/n2
*885 fa_i_74/n3
*886 fa_i_74/n4
*887 fa_i_75/n1
*888 fa_i_75/n2
*889 fa_i_75/n3
*890 fa_i_75/n4
*891 fa_i_76/n1
*892 fa_i_76/n2
*893 fa_i_76/n3
*894 fa_i_76/n4
*895 fa_i_77/n1
*896 fa_i_77/n2
*897 fa_i_77/n3
*898 fa_i_77/n4
*899 fa_i_78/n1
*900 fa_i_78/n2
*901 fa_i_78/n3
*902 fa_i_78/n4
*903 fa_i_79/n1
*904 fa_i_79/n2
*905 fa_i_79/n3
*906 fa_i_79/n4
*907 fa_i_80/n1
*908 fa_i_80/n2
*909 fa_i_80/n3
*910 fa_i_80/n4
*911 fa_i_81/n1
*912 fa_i_81/n2
*913 fa_i_81/n3
*914 fa_i_81/n4
*915 fa_i_82/n1
*916 fa_i_82/n2
*917 fa_i_82/n3
*918 fa_i_82/n4
*919 fa_i_83/n1
*920 fa_i_83/n2
*921 fa_i_83/n3
*922 fa_i_83/n4
*923 fa_i_84/n1
*924 fa_i_84/n2
*925 fa_i_84/n3
*926 fa_i_84/n4
*927 fa_i_85/n1
*928 fa_i_85/n2
*929 fa_i_85/n3
*930 fa_i_85/n4
*931 fa_i_86/n1
*932 fa_i_86/n2
*933 fa_i_86/n3
*934 fa_i_86/n4
*935 fa_i_87/n1
*936 fa_i_87/n2
*937 fa_i_87/n3
*938 fa_i_87/n4
*939 fa_i_88/n2
*940 fa_i_88/n3
*941 fa_i_88/n4
*942 fa_i_88/n5
*943 fa_i_89/n1
*944 fa_i_89/n2
*945 fa_i_89/n3
*946 fa_i_89/n4
*947 fa_i_90/n1
*948 fa_i_90/n2
*949 fa_i_90/n3
*950 fa_i_90/n4
*951 fa_i_91/n1
*952 fa_i_91/n2
*953 fa_i_91/n3
*954 fa_i_91/n4
*955 fa_i_92/n1
*956 fa_i_92/n2
*957 fa_i_92/n3
*958 fa_i_92/n4
*959 fa_i_93/n2
*960 fa_i_93/n3
*961 fa_i_93/n4
*962 fa_i_93/n5
*963 fa_i_94/n1
*964 fa_i_94/n2
*965 fa_i_94/n3
*966 fa_i_94/n4
*967 fa_i_95/n1
*968 fa_i_95/n2
*969 fa_i_95/n3
*970 fa_i_95/n4
*971 fa_i_96/n1
*972 fa_i_96/n2
*973 fa_i_96/n3
*974 fa_i_96/n4
*975 fa_i_97/n1
*976 fa_i_97/n2
*977 fa_i_97/n3
*978 fa_i_97/n4
*979 fa_i_98/n2
*980 fa_i_98/n3
*981 fa_i_98/n4
*982 fa_i_98/n5
*983 fa_i_99/n1
*984 fa_i_99/n2
*985 fa_i_99/n3
*986 fa_i_99/n4
*987 fa_i_100/n1
*988 fa_i_100/n2
*989 fa_i_100/n3
*990 fa_i_100/n4
*991 fa_i_101/n1
*992 fa_i_101/n2
*993 fa_i_101/n3
*994 fa_i_101/n4
*995 fa_i_102/n1
*996 fa_i_102/n2
*997 fa_i_102/n3
*998 fa_i_102/n4
*999 fa_i_103/n2
*1000 fa_i_103/n3
*1001 fa_i_103/n4
*1002 fa_i_103/n5
*1003 fa_i_104/n1
*1004 fa_i_104/n2
*1005 fa_i_104/n3
*1006 fa_i_104/n4
*1007 fa_i_105/n1
*1008 fa_i_105/n2
*1009 fa_i_105/n3
*1010 fa_i_105/n4
*1011 fa_i_106/n1
*1012 fa_i_106/n2
*1013 fa_i_106/n3
*1014 fa_i_106/n4
*1015 fa_i_107/n1
*1016 fa_i_107/n2
*1017 fa_i_107/n3
*1018 fa_i_107/n4
*1019 fa_i_108/n2
*1020 fa_i_108/n3
*1021 fa_i_108/n4
*1022 fa_i_108/n5
*1023 fa_i_109/n1
*1024 fa_i_109/n2
*1025 fa_i_109/n3
*1026 fa_i_109/n4
*1027 fa_i_110/n1
*1028 fa_i_110/n2
*1029 fa_i_110/n3
*1030 fa_i_110/n4
*1031 fa_i_111/n1
*1032 fa_i_111/n2
*1033 fa_i_111/n3
*1034 fa_i_111/n4
*1035 fa_i_112/n1
*1036 fa_i_112/n2
*1037 fa_i_112/n3
*1038 fa_i_112/n4
*1039 fa_i_113/n2
*1040 fa_i_113/n3
*1041 fa_i_113/n4
*1042 fa_i_113/n5
*1043 fa_i_114/n1
*1044 fa_i_114/n2
*1045 fa_i_114/n3
*1046 fa_i_114/n4
*1047 fa_i_115/n1
*1048 fa_i_115/n2
*1049 fa_i_115/n3
*1050 fa_i_115/n4
*1051 fa_i_116/n1
*1052 fa_i_116/n2
*1053 fa_i_116/n3
*1054 fa_i_116/n4
*1055 fa_i_117/n1
*1056 fa_i_117/n2
*1057 fa_i_117/n3
*1058 fa_i_117/n4
*1059 fa_i_118/n2
*1060 fa_i_118/n3
*1061 fa_i_118/n4
*1062 fa_i_118/n5
*1063 fa_i_119/n1
*1064 fa_i_119/n2
*1065 fa_i_119/n3
*1066 fa_i_119/n4
*1067 fa_i_120/n1
*1068 fa_i_120/n2
*1069 fa_i_120/n3
*1070 fa_i_120/n4
*1071 fa_i_121/n1
*1072 fa_i_121/n2
*1073 fa_i_121/n3
*1074 fa_i_121/n4
*1075 fa_i_122/n1
*1076 fa_i_122/n2
*1077 fa_i_122/n3
*1078 fa_i_122/n4
*1079 fa_i_123/n2
*1080 fa_i_123/n3
*1081 fa_i_123/n4
*1082 fa_i_123/n5
*1083 fa_i_124/n1
*1084 fa_i_124/n2
*1085 fa_i_124/n3
*1086 fa_i_124/n4
*1087 fa_i_125/net1558
*1088 fa_i_125/n1
*1089 fa_i_125/n2
*1090 fa_i_125/n3
*1091 fa_i_125/n4
*1092 fa_i_126/n1
*1093 fa_i_126/n2
*1094 fa_i_126/n3
*1095 fa_i_126/n4
*1096 fa_i_127/n1
*1097 fa_i_127/n2
*1098 fa_i_127/n3
*1099 fa_i_127/n4
*1100 fa_i_0/FE_RC_141_0
*1101 fa_i_0/U3
*1102 fa_i_0/U2
*1103 fa_i_0/U4
*1104 fa_i_0/U5
*1105 fa_i_0/U6
*1106 fa_i_0/U7
*1107 fa_i_1/FE_RC_146_0
*1108 fa_i_1/FE_RC_145_0
*1109 fa_i_1/FE_RC_143_0
*1110 fa_i_1/FE_RC_142_0
*1111 fa_i_1/FE_RC_140_0
*1112 fa_i_1/U2
*1113 fa_i_1/U3
*1114 fa_i_1/U5
*1115 fa_i_1/U7
*1116 fa_i_2/U1
*1117 fa_i_2/U2
*1118 fa_i_2/U3
*1119 fa_i_2/U4
*1120 fa_i_2/U5
*1121 fa_i_2/U7
*1122 fa_i_3/U1
*1123 fa_i_3/U2
*1124 fa_i_3/U3
*1125 fa_i_3/U4
*1126 fa_i_3/U5
*1127 fa_i_3/U7
*1128 fa_i_4/U1
*1129 fa_i_4/U2
*1130 fa_i_4/U3
*1131 fa_i_4/U4
*1132 fa_i_4/U5
*1133 fa_i_4/U7
*1134 fa_i_5/U1
*1135 fa_i_5/U2
*1136 fa_i_5/U3
*1137 fa_i_5/U4
*1138 fa_i_5/U5
*1139 fa_i_5/U7
*1140 fa_i_6/U1
*1141 fa_i_6/U2
*1142 fa_i_6/U3
*1143 fa_i_6/U4
*1144 fa_i_6/U5
*1145 fa_i_6/U7
*1146 fa_i_7/U1
*1147 fa_i_7/U2
*1148 fa_i_7/U3
*1149 fa_i_7/U4
*1150 fa_i_7/U5
*1151 fa_i_7/U7
*1152 fa_i_8/U1
*1153 fa_i_8/U2
*1154 fa_i_8/U3
*1155 fa_i_8/U4
*1156 fa_i_8/U5
*1157 fa_i_8/U7
*1158 fa_i_9/U1
*1159 fa_i_9/U2
*1160 fa_i_9/U3
*1161 fa_i_9/U4
*1162 fa_i_9/U5
*1163 fa_i_9/U7
*1164 fa_i_10/U1
*1165 fa_i_10/U2
*1166 fa_i_10/U3
*1167 fa_i_10/U4
*1168 fa_i_10/U5
*1169 fa_i_10/U7
*1170 fa_i_11/U1
*1171 fa_i_11/U2
*1172 fa_i_11/U3
*1173 fa_i_11/U4
*1174 fa_i_11/U5
*1175 fa_i_11/U7
*1176 fa_i_12/U1
*1177 fa_i_12/U2
*1178 fa_i_12/U3
*1179 fa_i_12/U4
*1180 fa_i_12/U5
*1181 fa_i_12/U7
*1182 fa_i_13/FE_RC_139_0
*1183 fa_i_13/FE_RC_138_0
*1184 fa_i_13/U2
*1185 fa_i_13/U3
*1186 fa_i_13/U4
*1187 fa_i_13/U5
*1188 fa_i_13/U7
*1189 fa_i_14/U1
*1190 fa_i_14/U2
*1191 fa_i_14/U3
*1192 fa_i_14/U4
*1193 fa_i_14/U5
*1194 fa_i_14/U7
*1195 fa_i_15/U1
*1196 fa_i_15/U2
*1197 fa_i_15/U3
*1198 fa_i_15/U4
*1199 fa_i_15/U5
*1200 fa_i_15/U7
*1201 fa_i_16/U1
*1202 fa_i_16/U2
*1203 fa_i_16/U3
*1204 fa_i_16/U4
*1205 fa_i_16/U5
*1206 fa_i_16/U7
*1207 fa_i_17/U1
*1208 fa_i_17/U2
*1209 fa_i_17/U3
*1210 fa_i_17/U4
*1211 fa_i_17/U5
*1212 fa_i_17/U7
*1213 fa_i_18/U1
*1214 fa_i_18/U2
*1215 fa_i_18/U3
*1216 fa_i_18/U4
*1217 fa_i_18/U5
*1218 fa_i_18/U7
*1219 fa_i_19/U1
*1220 fa_i_19/U2
*1221 fa_i_19/U3
*1222 fa_i_19/U4
*1223 fa_i_19/U5
*1224 fa_i_19/U7
*1225 fa_i_20/FE_RC_125_0
*1226 fa_i_20/FE_RC_124_0
*1227 fa_i_20/U2
*1228 fa_i_20/U3
*1229 fa_i_20/U4
*1230 fa_i_20/U5
*1231 fa_i_20/U7
*1232 fa_i_21/U1
*1233 fa_i_21/U2
*1234 fa_i_21/U3
*1235 fa_i_21/U4
*1236 fa_i_21/U5
*1237 fa_i_21/U7
*1238 fa_i_22/FE_RC_115_0
*1239 fa_i_22/FE_RC_114_0
*1240 fa_i_22/U2
*1241 fa_i_22/U3
*1242 fa_i_22/U4
*1243 fa_i_22/U5
*1244 fa_i_22/U7
*1245 fa_i_23/FE_RC_117_0
*1246 fa_i_23/FE_RC_116_0
*1247 fa_i_23/U2
*1248 fa_i_23/U3
*1249 fa_i_23/U4
*1250 fa_i_23/U5
*1251 fa_i_23/U7
*1252 fa_i_24/U1
*1253 fa_i_24/U2
*1254 fa_i_24/U3
*1255 fa_i_24/U4
*1256 fa_i_24/U5
*1257 fa_i_24/U7
*1258 fa_i_25/U1
*1259 fa_i_25/U2
*1260 fa_i_25/U3
*1261 fa_i_25/U4
*1262 fa_i_25/U5
*1263 fa_i_25/U7
*1264 fa_i_26/U1
*1265 fa_i_26/U2
*1266 fa_i_26/U3
*1267 fa_i_26/U4
*1268 fa_i_26/U5
*1269 fa_i_26/U7
*1270 fa_i_27/U1
*1271 fa_i_27/U2
*1272 fa_i_27/U3
*1273 fa_i_27/U4
*1274 fa_i_27/U5
*1275 fa_i_27/U7
*1276 fa_i_28/FE_RC_97_0
*1277 fa_i_28/FE_RC_96_0
*1278 fa_i_28/U2
*1279 fa_i_28/U3
*1280 fa_i_28/U4
*1281 fa_i_28/U5
*1282 fa_i_28/U7
*1283 fa_i_29/FE_RC_77_0
*1284 fa_i_29/FE_RC_76_0
*1285 fa_i_29/U2
*1286 fa_i_29/U3
*1287 fa_i_29/U4
*1288 fa_i_29/U5
*1289 fa_i_29/U7
*1290 fa_i_30/U1
*1291 fa_i_30/U2
*1292 fa_i_30/U3
*1293 fa_i_30/U4
*1294 fa_i_30/U5
*1295 fa_i_30/U7
*1296 fa_i_31/U1
*1297 fa_i_31/U2
*1298 fa_i_31/U3
*1299 fa_i_31/U4
*1300 fa_i_31/U5
*1301 fa_i_31/U7
*1302 fa_i_32/U1
*1303 fa_i_32/U2
*1304 fa_i_32/U3
*1305 fa_i_32/U4
*1306 fa_i_32/U5
*1307 fa_i_32/U7
*1308 fa_i_33/U1
*1309 fa_i_33/U2
*1310 fa_i_33/U3
*1311 fa_i_33/U4
*1312 fa_i_33/U5
*1313 fa_i_33/U7
*1314 fa_i_34/U1
*1315 fa_i_34/U2
*1316 fa_i_34/U3
*1317 fa_i_34/U4
*1318 fa_i_34/U5
*1319 fa_i_34/U7
*1320 fa_i_35/U1
*1321 fa_i_35/U2
*1322 fa_i_35/U3
*1323 fa_i_35/U4
*1324 fa_i_35/U5
*1325 fa_i_35/U7
*1326 fa_i_36/U1
*1327 fa_i_36/U2
*1328 fa_i_36/U3
*1329 fa_i_36/U4
*1330 fa_i_36/U5
*1331 fa_i_36/U7
*1332 fa_i_37/U1
*1333 fa_i_37/U2
*1334 fa_i_37/U3
*1335 fa_i_37/U4
*1336 fa_i_37/U5
*1337 fa_i_37/U7
*1338 fa_i_38/FE_RC_93_0
*1339 fa_i_38/FE_RC_92_0
*1340 fa_i_38/U2
*1341 fa_i_38/U3
*1342 fa_i_38/U4
*1343 fa_i_38/U5
*1344 fa_i_38/U7
*1345 fa_i_39/U1
*1346 fa_i_39/U2
*1347 fa_i_39/U3
*1348 fa_i_39/U4
*1349 fa_i_39/U5
*1350 fa_i_39/U7
*1351 fa_i_40/U1
*1352 fa_i_40/U2
*1353 fa_i_40/U3
*1354 fa_i_40/U4
*1355 fa_i_40/U5
*1356 fa_i_40/U7
*1357 fa_i_41/U1
*1358 fa_i_41/U2
*1359 fa_i_41/U3
*1360 fa_i_41/U4
*1361 fa_i_41/U5
*1362 fa_i_41/U7
*1363 fa_i_42/FE_RC_5_0
*1364 fa_i_42/FE_RC_4_0
*1365 fa_i_42/U2
*1366 fa_i_42/U3
*1367 fa_i_42/U4
*1368 fa_i_42/U5
*1369 fa_i_42/U7
*1370 fa_i_43/U1
*1371 fa_i_43/U2
*1372 fa_i_43/U3
*1373 fa_i_43/U4
*1374 fa_i_43/U5
*1375 fa_i_43/U7
*1376 fa_i_44/U1
*1377 fa_i_44/U2
*1378 fa_i_44/U3
*1379 fa_i_44/U4
*1380 fa_i_44/U5
*1381 fa_i_44/U7
*1382 fa_i_45/U1
*1383 fa_i_45/U2
*1384 fa_i_45/U3
*1385 fa_i_45/U4
*1386 fa_i_45/U5
*1387 fa_i_45/U7
*1388 fa_i_46/U1
*1389 fa_i_46/U2
*1390 fa_i_46/U3
*1391 fa_i_46/U4
*1392 fa_i_46/U5
*1393 fa_i_46/U7
*1394 fa_i_47/U1
*1395 fa_i_47/U2
*1396 fa_i_47/U3
*1397 fa_i_47/U4
*1398 fa_i_47/U5
*1399 fa_i_47/U7
*1400 fa_i_48/U1
*1401 fa_i_48/U2
*1402 fa_i_48/U3
*1403 fa_i_48/U4
*1404 fa_i_48/U5
*1405 fa_i_48/U7
*1406 fa_i_49/U1
*1407 fa_i_49/U2
*1408 fa_i_49/U3
*1409 fa_i_49/U4
*1410 fa_i_49/U5
*1411 fa_i_49/U7
*1412 fa_i_50/U1
*1413 fa_i_50/U2
*1414 fa_i_50/U3
*1415 fa_i_50/U4
*1416 fa_i_50/U5
*1417 fa_i_50/U7
*1418 fa_i_51/U1
*1419 fa_i_51/U2
*1420 fa_i_51/U3
*1421 fa_i_51/U4
*1422 fa_i_51/U5
*1423 fa_i_51/U7
*1424 fa_i_52/U1
*1425 fa_i_52/U2
*1426 fa_i_52/U3
*1427 fa_i_52/U4
*1428 fa_i_52/U5
*1429 fa_i_52/U7
*1430 fa_i_53/U1
*1431 fa_i_53/U2
*1432 fa_i_53/U3
*1433 fa_i_53/U4
*1434 fa_i_53/U5
*1435 fa_i_53/U7
*1436 fa_i_54/U1
*1437 fa_i_54/U2
*1438 fa_i_54/U3
*1439 fa_i_54/U4
*1440 fa_i_54/U5
*1441 fa_i_54/U7
*1442 fa_i_55/FE_RC_3_0
*1443 fa_i_55/FE_RC_2_0
*1444 fa_i_55/U2
*1445 fa_i_55/U3
*1446 fa_i_55/U4
*1447 fa_i_55/U5
*1448 fa_i_55/U7
*1449 fa_i_56/FE_RC_21_0
*1450 fa_i_56/FE_RC_20_0
*1451 fa_i_56/U2
*1452 fa_i_56/U3
*1453 fa_i_56/U4
*1454 fa_i_56/U5
*1455 fa_i_56/U7
*1456 fa_i_57/FE_RC_27_0
*1457 fa_i_57/FE_RC_26_0
*1458 fa_i_57/U2
*1459 fa_i_57/U3
*1460 fa_i_57/U4
*1461 fa_i_57/U5
*1462 fa_i_57/U7
*1463 fa_i_58/FE_RC_33_0
*1464 fa_i_58/FE_RC_32_0
*1465 fa_i_58/U2
*1466 fa_i_58/U3
*1467 fa_i_58/U4
*1468 fa_i_58/U5
*1469 fa_i_58/U7
*1470 fa_i_59/FE_RC_53_0
*1471 fa_i_59/FE_RC_52_0
*1472 fa_i_59/U2
*1473 fa_i_59/U3
*1474 fa_i_59/U4
*1475 fa_i_59/U5
*1476 fa_i_59/U7
*1477 fa_i_60/FE_RC_83_0
*1478 fa_i_60/FE_RC_82_0
*1479 fa_i_60/U2
*1480 fa_i_60/U3
*1481 fa_i_60/U4
*1482 fa_i_60/U5
*1483 fa_i_60/U7
*1484 fa_i_61/FE_RC_25_0
*1485 fa_i_61/FE_RC_24_0
*1486 fa_i_61/U2
*1487 fa_i_61/U3
*1488 fa_i_61/U4
*1489 fa_i_61/U5
*1490 fa_i_61/U7
*1491 fa_i_62/FE_RC_73_0
*1492 fa_i_62/FE_RC_72_0
*1493 fa_i_62/U2
*1494 fa_i_62/U3
*1495 fa_i_62/U4
*1496 fa_i_62/U5
*1497 fa_i_62/U7
*1498 fa_i_63/FE_RC_75_0
*1499 fa_i_63/FE_RC_74_0
*1500 fa_i_63/U2
*1501 fa_i_63/U3
*1502 fa_i_63/U4
*1503 fa_i_63/U5
*1504 fa_i_63/U7
*1505 fa_i_64/FE_RC_81_0
*1506 fa_i_64/FE_RC_80_0
*1507 fa_i_64/U2
*1508 fa_i_64/U3
*1509 fa_i_64/U4
*1510 fa_i_64/U5
*1511 fa_i_64/U7
*1512 fa_i_65/U1
*1513 fa_i_65/U2
*1514 fa_i_65/U3
*1515 fa_i_65/U4
*1516 fa_i_65/U5
*1517 fa_i_65/U7
*1518 fa_i_66/FE_RC_29_0
*1519 fa_i_66/FE_RC_28_0
*1520 fa_i_66/U2
*1521 fa_i_66/U3
*1522 fa_i_66/U4
*1523 fa_i_66/U5
*1524 fa_i_66/U7
*1525 fa_i_67/FE_RC_51_0
*1526 fa_i_67/FE_RC_50_0
*1527 fa_i_67/U2
*1528 fa_i_67/U3
*1529 fa_i_67/U4
*1530 fa_i_67/U5
*1531 fa_i_67/U7
*1532 fa_i_68/FE_RC_71_0
*1533 fa_i_68/FE_RC_70_0
*1534 fa_i_68/U2
*1535 fa_i_68/U3
*1536 fa_i_68/U4
*1537 fa_i_68/U5
*1538 fa_i_68/U7
*1539 fa_i_69/FE_RC_9_0
*1540 fa_i_69/FE_RC_8_0
*1541 fa_i_69/U2
*1542 fa_i_69/U3
*1543 fa_i_69/U4
*1544 fa_i_69/U5
*1545 fa_i_69/U7
*1546 fa_i_70/FE_RC_59_0
*1547 fa_i_70/FE_RC_58_0
*1548 fa_i_70/U2
*1549 fa_i_70/U3
*1550 fa_i_70/U4
*1551 fa_i_70/U5
*1552 fa_i_70/U7
*1553 fa_i_71/FE_RC_87_0
*1554 fa_i_71/FE_RC_86_0
*1555 fa_i_71/U2
*1556 fa_i_71/U3
*1557 fa_i_71/U4
*1558 fa_i_71/U5
*1559 fa_i_71/U7
*1560 fa_i_72/FE_RC_41_0
*1561 fa_i_72/FE_RC_40_0
*1562 fa_i_72/U2
*1563 fa_i_72/U3
*1564 fa_i_72/U4
*1565 fa_i_72/U5
*1566 fa_i_72/U7
*1567 fa_i_73/FE_RC_35_0
*1568 fa_i_73/FE_RC_34_0
*1569 fa_i_73/U2
*1570 fa_i_73/U3
*1571 fa_i_73/U4
*1572 fa_i_73/U5
*1573 fa_i_73/U7
*1574 fa_i_74/FE_RC_57_0
*1575 fa_i_74/FE_RC_56_0
*1576 fa_i_74/U2
*1577 fa_i_74/U3
*1578 fa_i_74/U4
*1579 fa_i_74/U5
*1580 fa_i_74/U7
*1581 fa_i_75/FE_RC_31_0
*1582 fa_i_75/FE_RC_30_0
*1583 fa_i_75/U2
*1584 fa_i_75/U3
*1585 fa_i_75/U4
*1586 fa_i_75/U5
*1587 fa_i_75/U7
*1588 fa_i_76/FE_RC_79_0
*1589 fa_i_76/FE_RC_78_0
*1590 fa_i_76/U2
*1591 fa_i_76/U3
*1592 fa_i_76/U4
*1593 fa_i_76/U5
*1594 fa_i_76/U7
*1595 fa_i_77/FE_RC_67_0
*1596 fa_i_77/FE_RC_66_0
*1597 fa_i_77/U2
*1598 fa_i_77/U3
*1599 fa_i_77/U4
*1600 fa_i_77/U5
*1601 fa_i_77/U7
*1602 fa_i_78/FE_RC_65_0
*1603 fa_i_78/FE_RC_64_0
*1604 fa_i_78/U2
*1605 fa_i_78/U3
*1606 fa_i_78/U4
*1607 fa_i_78/U5
*1608 fa_i_78/U7
*1609 fa_i_79/FE_RC_49_0
*1610 fa_i_79/FE_RC_48_0
*1611 fa_i_79/U2
*1612 fa_i_79/U3
*1613 fa_i_79/U4
*1614 fa_i_79/U5
*1615 fa_i_79/U7
*1616 fa_i_80/FE_RC_11_0
*1617 fa_i_80/FE_RC_10_0
*1618 fa_i_80/U2
*1619 fa_i_80/U3
*1620 fa_i_80/U4
*1621 fa_i_80/U5
*1622 fa_i_80/U7
*1623 fa_i_81/FE_RC_17_0
*1624 fa_i_81/FE_RC_16_0
*1625 fa_i_81/U2
*1626 fa_i_81/U3
*1627 fa_i_81/U4
*1628 fa_i_81/U5
*1629 fa_i_81/U7
*1630 fa_i_82/FE_RC_63_0
*1631 fa_i_82/FE_RC_62_0
*1632 fa_i_82/U2
*1633 fa_i_82/U3
*1634 fa_i_82/U4
*1635 fa_i_82/U5
*1636 fa_i_82/U7
*1637 fa_i_83/FE_RC_47_0
*1638 fa_i_83/FE_RC_46_0
*1639 fa_i_83/U2
*1640 fa_i_83/U3
*1641 fa_i_83/U4
*1642 fa_i_83/U5
*1643 fa_i_83/U7
*1644 fa_i_84/FE_RC_1_0
*1645 fa_i_84/FE_RC_0_0
*1646 fa_i_84/U2
*1647 fa_i_84/U3
*1648 fa_i_84/U4
*1649 fa_i_84/U5
*1650 fa_i_84/U7
*1651 fa_i_85/FE_RC_89_0
*1652 fa_i_85/FE_RC_88_0
*1653 fa_i_85/U2
*1654 fa_i_85/U3
*1655 fa_i_85/U4
*1656 fa_i_85/U5
*1657 fa_i_85/U7
*1658 fa_i_86/FE_RC_45_0
*1659 fa_i_86/FE_RC_44_0
*1660 fa_i_86/U2
*1661 fa_i_86/U3
*1662 fa_i_86/U4
*1663 fa_i_86/U5
*1664 fa_i_86/U7
*1665 fa_i_87/U1
*1666 fa_i_87/U2
*1667 fa_i_87/U3
*1668 fa_i_87/U4
*1669 fa_i_87/U5
*1670 fa_i_87/U7
*1671 fa_i_88/FE_RC_39_0
*1672 fa_i_88/FE_RC_38_0
*1673 fa_i_88/U2
*1674 fa_i_88/U3
*1675 fa_i_88/U4
*1676 fa_i_88/U5
*1677 fa_i_88/U7
*1678 fa_i_89/FE_RC_55_0
*1679 fa_i_89/FE_RC_54_0
*1680 fa_i_89/U2
*1681 fa_i_89/U3
*1682 fa_i_89/U4
*1683 fa_i_89/U5
*1684 fa_i_89/U7
*1685 fa_i_90/FE_RC_37_0
*1686 fa_i_90/FE_RC_36_0
*1687 fa_i_90/U2
*1688 fa_i_90/U3
*1689 fa_i_90/U4
*1690 fa_i_90/U5
*1691 fa_i_90/U7
*1692 fa_i_91/FE_RC_19_0
*1693 fa_i_91/FE_RC_18_0
*1694 fa_i_91/U2
*1695 fa_i_91/U3
*1696 fa_i_91/U4
*1697 fa_i_91/U5
*1698 fa_i_91/U7
*1699 fa_i_92/U1
*1700 fa_i_92/U2
*1701 fa_i_92/U3
*1702 fa_i_92/U4
*1703 fa_i_92/U5
*1704 fa_i_92/U7
*1705 fa_i_93/FE_RC_15_0
*1706 fa_i_93/FE_RC_14_0
*1707 fa_i_93/U2
*1708 fa_i_93/U3
*1709 fa_i_93/U4
*1710 fa_i_93/U5
*1711 fa_i_93/U7
*1712 fa_i_94/FE_RC_43_0
*1713 fa_i_94/FE_RC_42_0
*1714 fa_i_94/U2
*1715 fa_i_94/U3
*1716 fa_i_94/U4
*1717 fa_i_94/U5
*1718 fa_i_94/U7
*1719 fa_i_95/FE_RC_23_0
*1720 fa_i_95/FE_RC_22_0
*1721 fa_i_95/U2
*1722 fa_i_95/U3
*1723 fa_i_95/U4
*1724 fa_i_95/U5
*1725 fa_i_95/U7
*1726 fa_i_96/FE_RC_69_0
*1727 fa_i_96/FE_RC_68_0
*1728 fa_i_96/U2
*1729 fa_i_96/U3
*1730 fa_i_96/U4
*1731 fa_i_96/U5
*1732 fa_i_96/U7
*1733 fa_i_97/U1
*1734 fa_i_97/U2
*1735 fa_i_97/U3
*1736 fa_i_97/U4
*1737 fa_i_97/U5
*1738 fa_i_97/U7
*1739 fa_i_98/FE_RC_13_0
*1740 fa_i_98/FE_RC_12_0
*1741 fa_i_98/U2
*1742 fa_i_98/U3
*1743 fa_i_98/U4
*1744 fa_i_98/U5
*1745 fa_i_98/U7
*1746 fa_i_99/FE_RC_61_0
*1747 fa_i_99/FE_RC_60_0
*1748 fa_i_99/U2
*1749 fa_i_99/U3
*1750 fa_i_99/U4
*1751 fa_i_99/U5
*1752 fa_i_99/U7
*1753 fa_i_100/FE_RC_91_0
*1754 fa_i_100/FE_RC_90_0
*1755 fa_i_100/U2
*1756 fa_i_100/U3
*1757 fa_i_100/U4
*1758 fa_i_100/U5
*1759 fa_i_100/U7
*1760 fa_i_101/FE_RC_7_0
*1761 fa_i_101/FE_RC_6_0
*1762 fa_i_101/U2
*1763 fa_i_101/U3
*1764 fa_i_101/U4
*1765 fa_i_101/U5
*1766 fa_i_101/U7
*1767 fa_i_102/U1
*1768 fa_i_102/U2
*1769 fa_i_102/U3
*1770 fa_i_102/U4
*1771 fa_i_102/U5
*1772 fa_i_102/U7
*1773 fa_i_103/FE_RC_85_0
*1774 fa_i_103/FE_RC_84_0
*1775 fa_i_103/U2
*1776 fa_i_103/U3
*1777 fa_i_103/U4
*1778 fa_i_103/U5
*1779 fa_i_103/U7
*1780 fa_i_104/FE_RC_101_0
*1781 fa_i_104/FE_RC_100_0
*1782 fa_i_104/U2
*1783 fa_i_104/U3
*1784 fa_i_104/U4
*1785 fa_i_104/U5
*1786 fa_i_104/U7
*1787 fa_i_105/FE_RC_95_0
*1788 fa_i_105/FE_RC_94_0
*1789 fa_i_105/U2
*1790 fa_i_105/U3
*1791 fa_i_105/U4
*1792 fa_i_105/U5
*1793 fa_i_105/U7
*1794 fa_i_106/FE_RC_99_0
*1795 fa_i_106/FE_RC_98_0
*1796 fa_i_106/U2
*1797 fa_i_106/U3
*1798 fa_i_106/U4
*1799 fa_i_106/U5
*1800 fa_i_106/U7
*1801 fa_i_107/U1
*1802 fa_i_107/U2
*1803 fa_i_107/U3
*1804 fa_i_107/U4
*1805 fa_i_107/U5
*1806 fa_i_107/U7
*1807 fa_i_108/FE_RC_105_0
*1808 fa_i_108/FE_RC_104_0
*1809 fa_i_108/U2
*1810 fa_i_108/U3
*1811 fa_i_108/U4
*1812 fa_i_108/U5
*1813 fa_i_108/U7
*1814 fa_i_109/FE_RC_103_0
*1815 fa_i_109/FE_RC_102_0
*1816 fa_i_109/U2
*1817 fa_i_109/U3
*1818 fa_i_109/U4
*1819 fa_i_109/U5
*1820 fa_i_109/U7