*SPEF "IEEE 1481-1998"
*DESIGN "SUM"
*DATE "Thu Jun  3 11:22:06 2021"
*VENDOR "Cadence Design Systems, Inc."
*PROGRAM "Innovus"
*VERSION "17.11-s080_1"
*DESIGN_FLOW "PIN_CAP NONE" "NAME_SCOPE LOCAL"
*DIVIDER /
*DELIMITER :
*BUS_DELIMITER []
*T_UNIT 1 NS
*C_UNIT 1 PF
*R_UNIT 1 OHM
*L_UNIT 1 HENRY

// MMMC spef file for corner 'standard'

*NAME_MAP

*1 FE_PHN268_RST
*2 FE_PHN267_RST
*3 FE_PHN266_RST
*4 FE_PHN265_RST
*5 FE_PHN264_RST
*6 FE_OFN6_n386
*7 FE_OFN5_n386
*8 FE_OFN4_n386
*9 FE_OFN3_n386
*10 FE_OFN2_n386
*11 FE_OFN1_n386
*12 FE_OFN0_n386
*13 A[127]
*14 A[126]
*15 A[125]
*16 A[124]
*17 A[123]
*18 A[122]
*19 A[121]
*20 A[120]
*21 A[119]
*22 A[118]
*23 A[117]
*24 A[116]
*25 A[115]
*26 A[114]
*27 A[113]
*28 A[112]
*29 A[111]
*30 A[110]
*31 A[109]
*32 A[108]
*33 A[107]
*34 A[106]
*35 A[105]
*36 A[104]
*37 A[103]
*38 A[102]
*39 A[101]
*40 A[100]
*41 A[99]
*42 A[98]
*43 A[97]
*44 A[96]
*45 A[95]
*46 A[94]
*47 A[93]
*48 A[92]
*49 A[91]
*50 A[90]
*51 A[89]
*52 A[88]
*53 A[87]
*54 A[86]
*55 A[85]
*56 A[84]
*57 A[83]
*58 A[82]
*59 A[81]
*60 A[80]
*61 A[79]
*62 A[78]
*63 A[77]
*64 A[76]
*65 A[75]
*66 A[74]
*67 A[73]
*68 A[72]
*69 A[71]
*70 A[70]
*71 A[69]
*72 A[68]
*73 A[67]
*74 A[66]
*75 A[65]
*76 A[64]
*77 A[63]
*78 A[62]
*79 A[61]
*80 A[60]
*81 A[59]
*82 A[58]
*83 A[57]
*84 A[56]
*85 A[55]
*86 A[54]
*87 A[53]
*88 A[52]
*89 A[51]
*90 A[50]
*91 A[49]
*92 A[48]
*93 A[47]
*94 A[46]
*95 A[45]
*96 A[44]
*97 A[43]
*98 A[42]
*99 A[41]
*100 A[40]
*101 A[39]
*102 A[38]
*103 A[37]
*104 A[36]
*105 A[35]
*106 A[34]
*107 A[33]
*108 A[32]
*109 A[31]
*110 A[30]
*111 A[29]
*112 A[28]
*113 A[27]
*114 A[26]
*115 A[25]
*116 A[24]
*117 A[23]
*118 A[22]
*119 A[21]
*120 A[20]
*121 A[19]
*122 A[18]
*123 A[17]
*124 A[16]
*125 A[15]
*126 A[14]
*127 A[13]
*128 A[12]
*129 A[11]
*130 A[10]
*131 A[9]
*132 A[8]
*133 A[7]
*134 A[6]
*135 A[5]
*136 A[4]
*137 A[3]
*138 A[2]
*139 A[1]
*140 A[0]
*141 B[127]
*142 B[126]
*143 B[125]
*144 B[124]
*145 B[123]
*146 B[122]
*147 B[121]
*148 B[120]
*149 B[119]
*150 B[118]
*151 B[117]
*152 B[116]
*153 B[115]
*154 B[114]
*155 B[113]
*156 B[112]
*157 B[111]
*158 B[110]
*159 B[109]
*160 B[108]
*161 B[107]
*162 B[106]
*163 B[105]
*164 B[104]
*165 B[103]
*166 B[102]
*167 B[101]
*168 B[100]
*169 B[99]
*170 B[98]
*171 B[97]
*172 B[96]
*173 B[95]
*174 B[94]
*175 B[93]
*176 B[92]
*177 B[91]
*178 B[90]
*179 B[89]
*180 B[88]
*181 B[87]
*182 B[86]
*183 B[85]
*184 B[84]
*185 B[83]
*186 B[82]
*187 B[81]
*188 B[80]
*189 B[79]
*190 B[78]
*191 B[77]
*192 B[76]
*193 B[75]
*194 B[74]
*195 B[73]
*196 B[72]
*197 B[71]
*198 B[70]
*199 B[69]
*200 B[68]
*201 B[67]
*202 B[66]
*203 B[65]
*204 B[64]
*205 B[63]
*206 B[62]
*207 B[61]
*208 B[60]
*209 B[59]
*210 B[58]
*211 B[57]
*212 B[56]
*213 B[55]
*214 B[54]
*215 B[53]
*216 B[52]
*217 B[51]
*218 B[50]
*219 B[49]
*220 B[48]
*221 B[47]
*222 B[46]
*223 B[45]
*224 B[44]
*225 B[43]
*226 B[42]
*227 B[41]
*228 B[40]
*229 B[39]
*230 B[38]
*231 B[37]
*232 B[36]
*233 B[35]
*234 B[34]
*235 B[33]
*236 B[32]
*237 B[31]
*238 B[30]
*239 B[29]
*240 B[28]
*241 B[27]
*242 B[26]
*243 B[25]
*244 B[24]
*245 B[23]
*246 B[22]
*247 B[21]
*248 B[20]
*249 B[19]
*250 B[18]
*251 B[17]
*252 B[16]
*253 B[15]
*254 B[14]
*255 B[13]
*256 B[12]
*257 B[11]
*258 B[10]
*259 B[9]
*260 B[8]
*261 B[7]
*262 B[6]
*263 B[5]
*264 B[4]
*265 B[3]
*266 B[2]
*267 B[1]
*268 B[0]
*269 S[127]
*270 S[126]
*271 S[125]
*272 S[124]
*273 S[123]
*274 S[122]
*275 S[121]
*276 S[120]
*277 S[119]
*278 S[118]
*279 S[117]
*280 S[116]
*281 S[115]
*282 S[114]
*283 S[113]
*284 S[112]
*285 S[111]
*286 S[110]
*287 S[109]
*288 S[108]
*289 S[107]
*290 S[106]
*291 S[105]
*292 S[104]
*293 S[103]
*294 S[102]
*295 S[101]
*296 S[100]
*297 S[99]
*298 S[98]
*299 S[97]
*300 S[96]
*301 S[95]
*302 S[94]
*303 S[93]
*304 S[92]
*305 S[91]
*306 S[90]
*307 S[89]
*308 S[88]
*309 S[87]
*310 S[86]
*311 S[85]
*312 S[84]
*313 S[83]
*314 S[82]
*315 S[81]
*316 S[80]
*317 S[79]
*318 S[78]
*319 S[77]
*320 S[76]
*321 S[75]
*322 S[74]
*323 S[73]
*324 S[72]
*325 S[71]
*326 S[70]
*327 S[69]
*328 S[68]
*329 S[67]
*330 S[66]
*331 S[65]
*332 S[64]
*333 S[63]
*334 S[62]
*335 S[61]
*336 S[60]
*337 S[59]
*338 S[58]
*339 S[57]
*340 S[56]
*341 S[55]
*342 S[54]
*343 S[53]
*344 S[52]
*345 S[51]
*346 S[50]
*347 S[49]
*348 S[48]
*349 S[47]
*350 S[46]
*351 S[45]
*352 S[44]
*353 S[43]
*354 S[42]
*355 S[41]
*356 S[40]
*357 S[39]
*358 S[38]
*359 S[37]
*360 S[36]
*361 S[35]
*362 S[34]
*363 S[33]
*364 S[32]
*365 S[31]
*366 S[30]
*367 S[29]
*368 S[28]
*369 S[27]
*370 S[26]
*371 S[25]
*372 S[24]
*373 S[23]
*374 S[22]
*375 S[21]
*376 S[20]
*377 S[19]
*378 S[18]
*379 S[17]
*380 S[16]
*381 S[15]
*382 S[14]
*383 S[13]
*384 S[12]
*385 S[11]
*386 S[10]
*387 S[9]
*388 S[8]
*389 S[7]
*390 S[6]
*391 S[5]
*392 S[4]
*393 S[3]
*394 S[2]
*395 S[1]
*396 S[0]
*397 Ci
*398 CLK
*399 RST
*400 Co
*401 CITMP
*402 COTMP
*403 n386
*404 ATMP[127]
*405 ATMP[126]
*406 ATMP[125]
*407 ATMP[124]
*408 ATMP[123]
*409 ATMP[122]
*410 ATMP[121]
*411 ATMP[120]
*412 ATMP[119]
*413 ATMP[118]
*414 ATMP[117]
*415 ATMP[116]
*416 ATMP[115]
*417 ATMP[114]
*418 ATMP[113]
*419 ATMP[112]
*420 ATMP[111]
*421 ATMP[110]
*422 ATMP[109]
*423 ATMP[108]
*424 ATMP[107]
*425 ATMP[106]
*426 ATMP[105]
*427 ATMP[104]
*428 ATMP[103]
*429 ATMP[102]
*430 ATMP[101]
*431 ATMP[100]
*432 ATMP[99]
*433 ATMP[98]
*434 ATMP[97]
*435 ATMP[96]
*436 ATMP[95]
*437 ATMP[94]
*438 ATMP[93]
*439 ATMP[92]
*440 ATMP[91]
*441 ATMP[90]
*442 ATMP[89]
*443 ATMP[88]
*444 ATMP[87]
*445 ATMP[86]
*446 ATMP[85]
*447 ATMP[84]
*448 ATMP[83]
*449 ATMP[82]
*450 ATMP[81]
*451 ATMP[80]
*452 ATMP[79]
*453 ATMP[78]
*454 ATMP[77]
*455 ATMP[76]
*456 ATMP[75]
*457 ATMP[74]
*458 ATMP[73]
*459 ATMP[72]
*460 ATMP[71]
*461 ATMP[70]
*462 ATMP[69]
*463 ATMP[68]
*464 ATMP[67]
*465 ATMP[66]
*466 ATMP[65]
*467 ATMP[64]
*468 ATMP[63]
*469 ATMP[62]
*470 ATMP[61]
*471 ATMP[60]
*472 ATMP[59]
*473 ATMP[58]
*474 ATMP[57]
*475 ATMP[56]
*476 ATMP[55]
*477 ATMP[54]
*478 ATMP[53]
*479 ATMP[52]
*480 ATMP[51]
*481 ATMP[50]
*482 ATMP[49]
*483 ATMP[48]
*484 ATMP[47]
*485 ATMP[46]
*486 ATMP[45]
*487 ATMP[44]
*488 ATMP[43]
*489 ATMP[42]
*490 ATMP[41]
*491 ATMP[40]
*492 ATMP[39]
*493 ATMP[38]
*494 ATMP[37]
*495 ATMP[36]
*496 ATMP[35]
*497 ATMP[34]
*498 ATMP[33]
*499 ATMP[32]
*500 ATMP[31]
*501 ATMP[30]
*502 ATMP[29]
*503 ATMP[28]
*504 ATMP[27]
*505 ATMP[26]
*506 ATMP[25]
*507 ATMP[24]
*508 ATMP[23]
*509 ATMP[22]
*510 ATMP[21]
*511 ATMP[20]
*512 ATMP[19]
*513 ATMP[18]
*514 ATMP[17]
*515 ATMP[16]
*516 ATMP[15]
*517 ATMP[14]
*518 ATMP[13]
*519 ATMP[12]
*520 ATMP[11]
*521 ATMP[10]
*522 ATMP[9]
*523 ATMP[8]
*524 ATMP[7]
*525 ATMP[6]
*526 ATMP[5]
*527 ATMP[4]
*528 ATMP[3]
*529 ATMP[2]
*530 ATMP[1]
*531 ATMP[0]
*532 BTMP[127]
*533 BTMP[126]
*534 BTMP[125]
*535 BTMP[124]
*536 BTMP[123]
*537 BTMP[122]
*538 BTMP[121]
*539 BTMP[120]
*540 BTMP[119]
*541 BTMP[118]
*542 BTMP[117]
*543 BTMP[116]
*544 BTMP[115]
*545 BTMP[114]
*546 BTMP[113]
*547 BTMP[112]
*548 BTMP[111]
*549 BTMP[110]
*550 BTMP[109]
*551 BTMP[108]
*552 BTMP[107]
*553 BTMP[106]
*554 BTMP[105]
*555 BTMP[104]
*556 BTMP[103]
*557 BTMP[102]
*558 BTMP[101]
*559 BTMP[100]
*560 BTMP[99]
*561 BTMP[98]
*562 BTMP[97]
*563 BTMP[96]
*564 BTMP[95]
*565 BTMP[94]
*566 BTMP[93]
*567 BTMP[92]
*568 BTMP[91]
*569 BTMP[90]
*570 BTMP[89]
*571 BTMP[88]
*572 BTMP[87]
*573 BTMP[86]
*574 BTMP[85]
*575 BTMP[84]
*576 BTMP[83]
*577 BTMP[82]
*578 BTMP[81]
*579 BTMP[80]
*580 BTMP[79]
*581 BTMP[78]
*582 BTMP[77]
*583 BTMP[76]
*584 BTMP[75]
*585 BTMP[74]
*586 BTMP[73]
*587 BTMP[72]
*588 BTMP[71]
*589 BTMP[70]
*590 BTMP[69]
*591 BTMP[68]
*592 BTMP[67]
*593 BTMP[66]
*594 BTMP[65]
*595 BTMP[64]
*596 BTMP[63]
*597 BTMP[62]
*598 BTMP[61]
*599 BTMP[60]
*600 BTMP[59]
*601 BTMP[58]
*602 BTMP[57]
*603 BTMP[56]
*604 BTMP[55]
*605 BTMP[54]
*606 BTMP[53]
*607 BTMP[52]
*608 BTMP[51]
*609 BTMP[50]
*610 BTMP[49]
*611 BTMP[48]
*612 BTMP[47]
*613 BTMP[46]
*614 BTMP[45]
*615 BTMP[44]
*616 BTMP[43]
*617 BTMP[42]
*618 BTMP[41]
*619 BTMP[40]
*620 BTMP[39]
*621 BTMP[38]
*622 BTMP[37]
*623 BTMP[36]
*624 BTMP[35]
*625 BTMP[34]
*626 BTMP[33]
*627 BTMP[32]
*628 BTMP[31]
*629 BTMP[30]
*630 BTMP[29]
*631 BTMP[28]
*632 BTMP[27]
*633 BTMP[26]
*634 BTMP[25]
*635 BTMP[24]
*636 BTMP[23]
*637 BTMP[22]
*638 BTMP[21]
*639 BTMP[20]
*640 BTMP[19]
*641 BTMP[18]
*642 BTMP[17]
*643 BTMP[16]
*644 BTMP[15]
*645 BTMP[14]
*646 BTMP[13]
*647 BTMP[12]
*648 BTMP[11]
*649 BTMP[10]
*650 BTMP[9]
*651 BTMP[8]
*652 BTMP[7]
*653 BTMP[6]
*654 BTMP[5]
*655 BTMP[4]
*656 BTMP[3]
*657 BTMP[2]
*658 BTMP[1]
*659 BTMP[0]
*660 STMP[127]
*661 STMP[126]
*662 STMP[125]
*663 STMP[124]
*664 STMP[123]
*665 STMP[122]
*666 STMP[121]
*667 STMP[120]
*668 STMP[119]
*669 STMP[118]
*670 STMP[117]
*671 STMP[116]
*672 STMP[115]
*673 STMP[114]
*674 STMP[113]
*675 STMP[112]
*676 STMP[111]
*677 STMP[110]
*678 STMP[109]
*679 STMP[108]
*680 STMP[107]
*681 STMP[106]
*682 STMP[105]
*683 STMP[104]
*684 STMP[103]
*685 STMP[102]
*686 STMP[101]
*687 STMP[100]
*688 STMP[99]
*689 STMP[98]
*690 STMP[97]
*691 STMP[96]
*692 STMP[95]
*693 STMP[94]
*694 STMP[93]
*695 STMP[92]
*696 STMP[91]
*697 STMP[90]
*698 STMP[89]
*699 STMP[88]
*700 STMP[87]
*701 STMP[86]
*702 STMP[85]
*703 STMP[84]
*704 STMP[83]
*705 STMP[82]
*706 STMP[81]
*707 STMP[80]
*708 STMP[79]
*709 STMP[78]
*710 STMP[77]
*711 STMP[76]
*712 STMP[75]
*713 STMP[74]
*714 STMP[73]
*715 STMP[72]
*716 STMP[71]
*717 STMP[70]
*718 STMP[69]
*719 STMP[68]
*720 STMP[67]
*721 STMP[66]
*722 STMP[65]
*723 STMP[64]
*724 STMP[63]
*725 STMP[62]
*726 STMP[61]
*727 STMP[60]
*728 STMP[59]
*729 STMP[58]
*730 STMP[57]
*731 STMP[56]
*732 STMP[55]
*733 STMP[54]
*734 STMP[53]
*735 STMP[52]
*736 STMP[51]
*737 STMP[50]
*738 STMP[49]
*739 STMP[48]
*740 STMP[47]
*741 STMP[46]
*742 STMP[45]
*743 STMP[44]
*744 STMP[43]
*745 STMP[42]
*746 STMP[41]
*747 STMP[40]
*748 STMP[39]
*749 STMP[38]
*750 STMP[37]
*751 STMP[36]
*752 STMP[35]
*753 STMP[34]
*754 STMP[33]
*755 STMP[32]
*756 STMP[31]
*757 STMP[30]
*758 STMP[29]
*759 STMP[28]
*760 STMP[27]
*761 STMP[26]
*762 STMP[25]
*763 STMP[24]
*764 STMP[23]
*765 STMP[22]
*766 STMP[21]
*767 STMP[20]
*768 STMP[19]
*769 STMP[18]
*770 STMP[17]
*771 STMP[16]
*772 STMP[15]
*773 STMP[14]
*774 STMP[13]
*775 STMP[12]
*776 STMP[11]
*777 STMP[10]
*778 STMP[9]
*779 STMP[8]
*780 STMP[7]
*781 STMP[6]
*782 STMP[5]
*783 STMP[4]
*784 STMP[3]
*785 STMP[2]
*786 STMP[1]
*787 STMP[0]
*788 maprca/CTMP[127]
*789 maprca/CTMP[126]
*790 maprca/CTMP[125]
*791 maprca/CTMP[124]
*792 maprca/CTMP[123]
*793 maprca/CTMP[122]
*794 maprca/CTMP[121]
*795 maprca/CTMP[120]
*796 maprca/CTMP[119]
*797 maprca/CTMP[118]
*798 maprca/CTMP[117]
*799 maprca/CTMP[116]
*800 maprca/CTMP[115]
*801 maprca/CTMP[114]
*802 maprca/CTMP[113]
*803 maprca/CTMP[112]
*804 maprca/CTMP[111]
*805 maprca/CTMP[110]
*806 maprca/CTMP[109]
*807 maprca/CTMP[108]
*808 maprca/CTMP[107]
*809 maprca/CTMP[106]
*810 maprca/CTMP[105]
*811 maprca/CTMP[104]
*812 maprca/CTMP[103]
*813 maprca/CTMP[102]
*814 maprca/CTMP[101]
*815 maprca/CTMP[100]
*816 maprca/CTMP[99]
*817 maprca/CTMP[98]
*818 maprca/CTMP[97]
*819 maprca/CTMP[96]
*820 maprca/CTMP[95]
*821 maprca/CTMP[94]
*822 maprca/CTMP[93]
*823 maprca/CTMP[92]
*824 maprca/CTMP[91]
*825 maprca/CTMP[90]
*826 maprca/CTMP[89]
*827 maprca/CTMP[88]
*828 maprca/CTMP[87]
*829 maprca/CTMP[86]
*830 maprca/CTMP[85]
*831 maprca/CTMP[84]
*832 maprca/CTMP[83]
*833 maprca/CTMP[82]
*834 maprca/CTMP[81]
*835 maprca/CTMP[80]
*836 maprca/CTMP[79]
*837 maprca/CTMP[78]
*838 maprca/CTMP[77]
*839 maprca/CTMP[76]
*840 maprca/CTMP[75]
*841 maprca/CTMP[74]
*842 maprca/CTMP[73]
*843 maprca/CTMP[72]
*844 maprca/CTMP[71]
*845 maprca/CTMP[70]
*846 maprca/CTMP[69]
*847 maprca/CTMP[68]
*848 maprca/CTMP[67]
*849 maprca/CTMP[66]
*850 maprca/CTMP[65]
*851 maprca/CTMP[64]
*852 maprca/CTMP[63]
*853 maprca/CTMP[62]
*854 maprca/CTMP[61]
*855 maprca/CTMP[60]
*856 maprca/CTMP[59]
*857 maprca/CTMP[58]
*858 maprca/CTMP[57]
*859 maprca/CTMP[56]
*860 maprca/CTMP[55]
*861 maprca/CTMP[54]
*862 maprca/CTMP[53]
*863 maprca/CTMP[52]
*864 maprca/CTMP[51]
*865 maprca/CTMP[50]
*866 maprca/CTMP[49]
*867 maprca/CTMP[48]
*868 maprca/CTMP[47]
*869 maprca/CTMP[46]
*870 maprca/CTMP[45]
*871 maprca/CTMP[44]
*872 maprca/CTMP[43]
*873 maprca/CTMP[42]
*874 maprca/CTMP[41]
*875 maprca/CTMP[40]
*876 maprca/CTMP[39]
*877 maprca/CTMP[38]
*878 maprca/CTMP[37]
*879 maprca/CTMP[36]
*880 maprca/CTMP[35]
*881 maprca/CTMP[34]
*882 maprca/CTMP[33]
*883 maprca/CTMP[32]
*884 maprca/CTMP[31]
*885 maprca/CTMP[30]
*886 maprca/CTMP[29]
*887 maprca/CTMP[28]
*888 maprca/CTMP[27]
*889 maprca/CTMP[26]
*890 maprca/CTMP[25]
*891 maprca/CTMP[24]
*892 maprca/CTMP[23]
*893 maprca/CTMP[22]
*894 maprca/CTMP[21]
*895 maprca/CTMP[20]
*896 maprca/CTMP[19]
*897 maprca/CTMP[18]
*898 maprca/CTMP[17]
*899 maprca/CTMP[16]
*900 maprca/CTMP[15]
*901 maprca/CTMP[14]
*902 maprca/CTMP[13]
*903 maprca/CTMP[12]
*904 maprca/CTMP[11]
*905 maprca/CTMP[10]
*906 maprca/CTMP[9]
*907 maprca/CTMP[8]
*908 maprca/CTMP[7]
*909 maprca/CTMP[6]
*910 maprca/CTMP[5]
*911 maprca/CTMP[4]
*912 maprca/CTMP[3]
*913 maprca/CTMP[2]
*914 maprca/CTMP[1]
*915 maprca/FAI_1/n1
*916 maprca/FAI_1/n2
*917 maprca/FAI_1/n3
*918 maprca/FAI_2/n1
*919 maprca/FAI_2/n2
*920 maprca/FAI_2/n3
*921 maprca/FAI_2/n4
*922 maprca/FAI_3/n1
*923 maprca/FAI_3/n2
*924 maprca/FAI_3/n3
*925 maprca/FAI_3/n4
*926 maprca/FAI_4/n1
*927 maprca/FAI_4/n2
*928 maprca/FAI_4/n3
*929 maprca/FAI_4/n4
*930 maprca/FAI_5/n1
*931 maprca/FAI_5/n2
*932 maprca/FAI_5/n3
*933 maprca/FAI_5/n4
*934 maprca/FAI_6/n1
*935 maprca/FAI_6/n2
*936 maprca/FAI_6/n3
*937 maprca/FAI_6/n4
*938 maprca/FAI_7/n1
*939 maprca/FAI_7/n2
*940 maprca/FAI_7/n3
*941 maprca/FAI_7/n4
*942 maprca/FAI_8/n1
*943 maprca/FAI_8/n2
*944 maprca/FAI_8/n3
*945 maprca/FAI_8/n4
*946 maprca/FAI_9/n1
*947 maprca/FAI_9/n2
*948 maprca/FAI_9/n3
*949 maprca/FAI_9/n4
*950 maprca/FAI_10/n1
*951 maprca/FAI_10/n2
*952 maprca/FAI_10/n3
*953 maprca/FAI_10/n4
*954 maprca/FAI_11/n1
*955 maprca/FAI_11/n2
*956 maprca/FAI_11/n3
*957 maprca/FAI_11/n4
*958 maprca/FAI_12/n1
*959 maprca/FAI_12/n2
*960 maprca/FAI_12/n3
*961 maprca/FAI_12/n4
*962 maprca/FAI_13/n1
*963 maprca/FAI_13/n2
*964 maprca/FAI_13/n3
*965 maprca/FAI_13/n4
*966 maprca/FAI_14/n1
*967 maprca/FAI_14/n2
*968 maprca/FAI_14/n3
*969 maprca/FAI_14/n4
*970 maprca/FAI_15/n1
*971 maprca/FAI_15/n2
*972 maprca/FAI_15/n3
*973 maprca/FAI_15/n4
*974 maprca/FAI_16/n1
*975 maprca/FAI_16/n2
*976 maprca/FAI_16/n3
*977 maprca/FAI_16/n4
*978 maprca/FAI_17/n1
*979 maprca/FAI_17/n2
*980 maprca/FAI_17/n3
*981 maprca/FAI_17/n4
*982 maprca/FAI_18/n1
*983 maprca/FAI_18/n2
*984 maprca/FAI_18/n3
*985 maprca/FAI_18/n4
*986 maprca/FAI_19/n1
*987 maprca/FAI_19/n2
*988 maprca/FAI_19/n3
*989 maprca/FAI_19/n4
*990 maprca/FAI_20/n1
*991 maprca/FAI_20/n2
*992 maprca/FAI_20/n3
*993 maprca/FAI_20/n4
*994 maprca/FAI_21/n1
*995 maprca/FAI_21/n2
*996 maprca/FAI_21/n3
*997 maprca/FAI_21/n4
*998 maprca/FAI_22/n1
*999 maprca/FAI_22/n2
*1000 maprca/FAI_22/n3
*1001 maprca/FAI_22/n4
*1002 maprca/FAI_23/n1
*1003 maprca/FAI_23/n2
*1004 maprca/FAI_23/n3
*1005 maprca/FAI_23/n4
*1006 maprca/FAI_24/n1
*1007 maprca/FAI_24/n2
*1008 maprca/FAI_24/n3
*1009 maprca/FAI_24/n4
*1010 maprca/FAI_25/n1
*1011 maprca/FAI_25/n2
*1012 maprca/FAI_25/n3
*1013 maprca/FAI_26/n1
*1014 maprca/FAI_26/n2
*1015 maprca/FAI_26/n3
*1016 maprca/FAI_27/n1
*1017 maprca/FAI_27/n2
*1018 maprca/FAI_27/n3
*1019 maprca/FAI_28/n1
*1020 maprca/FAI_28/n2
*1021 maprca/FAI_28/n3
*1022 maprca/FAI_29/n1
*1023 maprca/FAI_29/n2
*1024 maprca/FAI_29/n3
*1025 maprca/FAI_30/n1
*1026 maprca/FAI_30/n2
*1027 maprca/FAI_30/n3
*1028 maprca/FAI_31/n1
*1029 maprca/FAI_31/n2
*1030 maprca/FAI_31/n3
*1031 maprca/FAI_32/n1
*1032 maprca/FAI_32/n2
*1033 maprca/FAI_32/n3
*1034 maprca/FAI_33/n1
*1035 maprca/FAI_33/n2
*1036 maprca/FAI_33/n3
*1037 maprca/FAI_34/n1
*1038 maprca/FAI_34/n2
*1039 maprca/FAI_34/n3
*1040 maprca/FAI_35/n1
*1041 maprca/FAI_35/n2
*1042 maprca/FAI_35/n3
*1043 maprca/FAI_36/n1
*1044 maprca/FAI_36/n2
*1045 maprca/FAI_36/n3
*1046 maprca/FAI_37/n1
*1047 maprca/FAI_37/n2
*1048 maprca/FAI_37/n3
*1049 maprca/FAI_38/n1
*1050 maprca/FAI_38/n2
*1051 maprca/FAI_38/n3
*1052 maprca/FAI_39/n1
*1053 maprca/FAI_39/n2
*1054 maprca/FAI_39/n3
*1055 maprca/FAI_40/n1
*1056 maprca/FAI_40/n2
*1057 maprca/FAI_40/n3
*1058 maprca/FAI_41/n1
*1059 maprca/FAI_41/n2
*1060 maprca/FAI_41/n3
*1061 maprca/FAI_42/n1
*1062 maprca/FAI_42/n2
*1063 maprca/FAI_42/n3
*1064 maprca/FAI_43/n1
*1065 maprca/FAI_43/n2
*1066 maprca/FAI_43/n3
*1067 maprca/FAI_44/n1
*1068 maprca/FAI_44/n2
*1069 maprca/FAI_44/n3
*1070 maprca/FAI_45/n1
*1071 maprca/FAI_45/n2
*1072 maprca/FAI_45/n3
*1073 maprca/FAI_46/n1
*1074 maprca/FAI_46/n2
*1075 maprca/FAI_46/n3
*1076 maprca/FAI_47/n1
*1077 maprca/FAI_47/n2
*1078 maprca/FAI_47/n3
*1079 maprca/FAI_48/n1
*1080 maprca/FAI_48/n2
*1081 maprca/FAI_48/n3
*1082 maprca/FAI_49/n1
*1083 maprca/FAI_49/n2
*1084 maprca/FAI_49/n3
*1085 maprca/FAI_50/n1
*1086 maprca/FAI_50/n2
*1087 maprca/FAI_50/n3
*1088 maprca/FAI_51/n1
*1089 maprca/FAI_51/n2
*1090 maprca/FAI_51/n3
*1091 maprca/FAI_52/n1
*1092 maprca/FAI_52/n2
*1093 maprca/FAI_52/n3
*1094 maprca/FAI_53/n1
*1095 maprca/FAI_53/n2
*1096 maprca/FAI_53/n3
*1097 maprca/FAI_54/n1
*1098 maprca/FAI_54/n2
*1099 maprca/FAI_54/n3
*1100 maprca/FAI_55/n1
*1101 maprca/FAI_55/n2
*1102 maprca/FAI_55/n3
*1103 maprca/FAI_56/n1
*1104 maprca/FAI_56/n2
*1105 maprca/FAI_56/n3
*1106 maprca/FAI_57/n1
*1107 maprca/FAI_57/n2
*1108 maprca/FAI_57/n3
*1109 maprca/FAI_58/n1
*1110 maprca/FAI_58/n2
*1111 maprca/FAI_58/n3
*1112 maprca/FAI_59/n1
*1113 maprca/FAI_59/n2
*1114 maprca/FAI_59/n3
*1115 maprca/FAI_60/n1
*1116 maprca/FAI_60/n2
*1117 maprca/FAI_60/n3
*1118 maprca/FAI_61/n1
*1119 maprca/FAI_61/n2
*1120 maprca/FAI_61/n3
*1121 maprca/FAI_62/n1
*1122 maprca/FAI_62/n2
*1123 maprca/FAI_62/n3
*1124 maprca/FAI_63/n1
*1125 maprca/FAI_63/n2
*1126 maprca/FAI_63/n3
*1127 maprca/FAI_64/n1
*1128 maprca/FAI_64/n2
*1129 maprca/FAI_64/n3
*1130 maprca/FAI_65/n1
*1131 maprca/FAI_65/n2
*1132 maprca/FAI_65/n3
*1133 maprca/FAI_66/n1
*1134 maprca/FAI_66/n2
*1135 maprca/FAI_66/n3
*1136 maprca/FAI_67/n1
*1137 maprca/FAI_67/n2
*1138 maprca/FAI_67/n3
*1139 maprca/FAI_68/n1
*1140 maprca/FAI_68/n2
*1141 maprca/FAI_68/n3
*1142 maprca/FAI_69/n1
*1143 maprca/FAI_69/n2
*1144 maprca/FAI_69/n3
*1145 maprca/FAI_70/n1
*1146 maprca/FAI_70/n2
*1147 maprca/FAI_70/n3
*1148 maprca/FAI_71/n1
*1149 maprca/FAI_71/n2
*1150 maprca/FAI_71/n3
*1151 maprca/FAI_72/n1
*1152 maprca/FAI_72/n2
*1153 maprca/FAI_72/n3
*1154 maprca/FAI_73/n1
*1155 maprca/FAI_73/n2
*1156 maprca/FAI_73/n3
*1157 maprca/FAI_74/n1
*1158 maprca/FAI_74/n2
*1159 maprca/FAI_74/n3
*1160 maprca/FAI_75/n1
*1161 maprca/FAI_75/n2
*1162 maprca/FAI_75/n3
*1163 maprca/FAI_76/n1
*1164 maprca/FAI_76/n2
*1165 maprca/FAI_76/n3
*1166 maprca/FAI_77/n1
*1167 maprca/FAI_77/n2
*1168 maprca/FAI_77/n3
*1169 maprca/FAI_78/n1
*1170 maprca/FAI_78/n2
*1171 maprca/FAI_78/n3
*1172 maprca/FAI_79/n1
*1173 maprca/FAI_79/n2
*1174 maprca/FAI_79/n3
*1175 maprca/FAI_80/n1
*1176 maprca/FAI_80/n2
*1177 maprca/FAI_80/n3
*1178 maprca/FAI_81/n1
*1179 maprca/FAI_81/n2
*1180 maprca/FAI_81/n3
*1181 maprca/FAI_82/n1
*1182 maprca/FAI_82/n2
*1183 maprca/FAI_82/n3
*1184 maprca/FAI_83/n1
*1185 maprca/FAI_83/n2
*1186 maprca/FAI_83/n3
*1187 maprca/FAI_84/n1
*1188 maprca/FAI_84/n2
*1189 maprca/FAI_84/n3
*1190 maprca/FAI_85/n1
*1191 maprca/FAI_85/n2
*1192 maprca/FAI_85/n3
*1193 maprca/FAI_86/n1
*1194 maprca/FAI_86/n2
*1195 maprca/FAI_86/n3
*1196 maprca/FAI_87/n1
*1197 maprca/FAI_87/n2
*1198 maprca/FAI_87/n3
*1199 maprca/FAI_88/n1
*1200 maprca/FAI_88/n2
*1201 maprca/FAI_88/n3
*1202 maprca/FAI_89/n1
*1203 maprca/FAI_89/n2
*1204 maprca/FAI_89/n3
*1205 maprca/FAI_90/n1
*1206 maprca/FAI_90/n2
*1207 maprca/FAI_90/n3
*1208 maprca/FAI_91/n1
*1209 maprca/FAI_91/n2
*1210 maprca/FAI_91/n3
*1211 maprca/FAI_92/n1
*1212 maprca/FAI_92/n2
*1213 maprca/FAI_92/n3
*1214 maprca/FAI_93/n1
*1215 maprca/FAI_93/n2
*1216 maprca/FAI_93/n3
*1217 maprca/FAI_94/n1
*1218 maprca/FAI_94/n2
*1219 maprca/FAI_94/n3
*1220 maprca/FAI_95/n1
*1221 maprca/FAI_95/n2
*1222 maprca/FAI_95/n3
*1223 maprca/FAI_96/n1
*1224 maprca/FAI_96/n2
*1225 maprca/FAI_96/n3
*1226 maprca/FAI_97/n1
*1227 maprca/FAI_97/n2
*1228 maprca/FAI_97/n3
*1229 maprca/FAI_98/n1
*1230 maprca/FAI_98/n2
*1231 maprca/FAI_98/n3
*1232 maprca/FAI_99/n1
*1233 maprca/FAI_99/n2
*1234 maprca/FAI_99/n3
*1235 maprca/FAI_100/n1
*1236 maprca/FAI_100/n2
*1237 maprca/FAI_100/n3
*1238 maprca/FAI_101/n1
*1239 maprca/FAI_101/n2
*1240 maprca/FAI_101/n3
*1241 maprca/FAI_102/n1
*1242 maprca/FAI_102/n2
*1243 maprca/FAI_102/n3
*1244 maprca/FAI_103/n1
*1245 maprca/FAI_103/n2
*1246 maprca/FAI_103/n3
*1247 maprca/FAI_104/n1
*1248 maprca/FAI_104/n2
*1249 maprca/FAI_104/n3
*1250 maprca/FAI_105/n1
*1251 maprca/FAI_105/n2
*1252 maprca/FAI_105/n3
*1253 maprca/FAI_105/n4
*1254 maprca/FAI_106/n1
*1255 maprca/FAI_106/n2
*1256 maprca/FAI_106/n3
*1257 maprca/FAI_106/n4
*1258 maprca/FAI_107/n1
*1259 maprca/FAI_107/n2
*1260 maprca/FAI_107/n3
*1261 maprca/FAI_107/n4
*1262 maprca/FAI_108/n1
*1263 maprca/FAI_108/n2
*1264 maprca/FAI_108/n3
*1265 maprca/FAI_108/n4
*1266 maprca/FAI_109/n1
*1267 maprca/FAI_109/n2
*1268 maprca/FAI_109/n3
*1269 maprca/FAI_109/n4
*1270 maprca/FAI_110/n1
*1271 maprca/FAI_110/n2
*1272 maprca/FAI_110/n3
*1273 maprca/FAI_110/n4
*1274 maprca/FAI_111/n1
*1275 maprca/FAI_111/n2
*1276 maprca/FAI_111/n3
*1277 maprca/FAI_111/n4
*1278 maprca/FAI_112/n1
*1279 maprca/FAI_112/n2
*1280 maprca/FAI_112/n3
*1281 maprca/FAI_112/n4
*1282 maprca/FAI_113/n1
*1283 maprca/FAI_113/n2
*1284 maprca/FAI_113/n3
*1285 maprca/FAI_113/n4
*1286 maprca/FAI_114/n1
*1287 maprca/FAI_114/n2
*1288 maprca/FAI_114/n3
*1289 maprca/FAI_114/n4
*1290 maprca/FAI_115/n1
*1291 maprca/FAI_115/n2
*1292 maprca/FAI_115/n3
*1293 maprca/FAI_115/n4
*1294 maprca/FAI_116/n1
*1295 maprca/FAI_116/n2
*1296 maprca/FAI_116/n3
*1297 maprca/FAI_116/n4
*1298 maprca/FAI_117/n1
*1299 maprca/FAI_117/n2
*1300 maprca/FAI_117/n3
*1301 maprca/FAI_117/n4
*1302 maprca/FAI_118/n1
*1303 maprca/FAI_118/n2
*1304 maprca/FAI_118/n3
*1305 maprca/FAI_118/n4
*1306 maprca/FAI_119/n1
*1307 maprca/FAI_119/n2
*1308 maprca/FAI_119/n3
*1309 maprca/FAI_119/n4
*1310 maprca/FAI_120/n1
*1311 maprca/FAI_120/n2
*1312 maprca/FAI_120/n3
*1313 maprca/FAI_120/n4
*1314 maprca/FAI_121/n1
*1315 maprca/FAI_121/n2
*1316 maprca/FAI_121/n3
*1317 maprca/FAI_121/n4
*1318 maprca/FAI_122/n1
*1319 maprca/FAI_122/n2
*1320 maprca/FAI_122/n3
*1321 maprca/FAI_122/n4
*1322 maprca/FAI_123/n1
*1323 maprca/FAI_123/n2
*1324 maprca/FAI_123/n3
*1325 maprca/FAI_123/n4
*1326 maprca/FAI_124/n1
*1327 maprca/FAI_124/n2
*1328 maprca/FAI_124/n3
*1329 maprca/FAI_124/n4
*1330 maprca/FAI_125/n1
*1331 maprca/FAI_125/n2
*1332 maprca/FAI_125/n3
*1333 maprca/FAI_125/n4
*1334 maprca/FAI_126/n1
*1335 maprca/FAI_126/n2
*1336 maprca/FAI_126/n3
*1337 maprca/FAI_126/n4
*1338 maprca/FAI_127/n1
*1339 maprca/FAI_127/n2
*1340 maprca/FAI_127/n3
*1341 maprca/FAI_127/n4
*1342 maprca/FAI_128/n1
*1343 maprca/FAI_128/n2
*1344 maprca/FAI_128/n3
*1345 maprca/FAI_128/n4
*1346 FE_PHC268_RST
*1347 FE_PHC267_RST
*1348 FE_PHC266_RST
*1349 FE_PHC265_RST
*1350 FE_PHC264_RST
*1351 FE_OFC6_n386
*1352 FE_OFC5_n386
*1353 FE_OFC4_n386
*1354 FE_OFC3_n386
*1355 FE_OFC2_n386
*1356 FE_OFC1_n386
*1357 FE_OFC0_n386
*1358 maprca/FAI_1/U1
*1359 maprca/FAI_1/U2
*1360 maprca/FAI_1/U3
*1361 maprca/FAI_1/U4
*1362 maprca/FAI_1/U5
*1363 maprca/FAI_2/U1
*1364 maprca/FAI_2/U2
*1365 maprca/FAI_2/U3
*1366 maprca/FAI_2/U4
*1367 maprca/FAI_2/U5
*1368 maprca/FAI_2/U6
*1369 maprca/FAI_3/U1
*1370 maprca/FAI_3/U2
*1371 maprca/FAI_3/U3
*1372 maprca/FAI_3/U4
*1373 maprca/FAI_3/U5
*1374 maprca/FAI_3/U6
*1375 maprca/FAI_4/U1
*1376 maprca/FAI_4/U2
*1377 maprca/FAI_4/U3
*1378 maprca/FAI_4/U4
*1379 maprca/FAI_4/U5
*1380 maprca/FAI_4/U6
*1381 maprca/FAI_5/U1
*1382 maprca/FAI_5/U2
*1383 maprca/FAI_5/U3
*1384 maprca/FAI_5/U4
*1385 maprca/FAI_5/U5
*1386 maprca/FAI_5/U6
*1387 maprca/FAI_6/U1
*1388 maprca/FAI_6/U2
*1389 maprca/FAI_6/U3
*1390 maprca/FAI_6/U4
*1391 maprca/FAI_6/U5
*1392 maprca/FAI_6/U6
*1393 maprca/FAI_7/U1
*1394 maprca/FAI_7/U2
*1395 maprca/FAI_7/U3
*1396 maprca/FAI_7/U4
*1397 maprca/FAI_7/U5
*1398 maprca/FAI_7/U6
*1399 maprca/FAI_8/U1
*1400 maprca/FAI_8/U2
*1401 maprca/FAI_8/U3
*1402 maprca/FAI_8/U4
*1403 maprca/FAI_8/U5
*1404 maprca/FAI_8/U6
*1405 maprca/FAI_9/U1
*1406 maprca/FAI_9/U2
*1407 maprca/FAI_9/U3
*1408 maprca/FAI_9/U4
*1409 maprca/FAI_9/U5
*1410 maprca/FAI_9/U6
*1411 maprca/FAI_10/U1
*1412 maprca/FAI_10/U2
*1413 maprca/FAI_10/U3
*1414 maprca/FAI_10/U4
*1415 maprca/FAI_10/U5
*1416 maprca/FAI_10/U6
*1417 maprca/FAI_11/U1
*1418 maprca/FAI_11/U2
*1419 maprca/FAI_11/U3
*1420 maprca/FAI_11/U4
*1421 maprca/FAI_11/U5
*1422 maprca/FAI_11/U6
*1423 maprca/FAI_12/U1
*1424 maprca/FAI_12/U2
*1425 maprca/FAI_12/U3
*1426 maprca/FAI_12/U4
*1427 maprca/FAI_12/U5
*1428 maprca/FAI_12/U6
*1429 maprca/FAI_13/U1
*1430 maprca/FAI_13/U2
*1431 maprca/FAI_13/U3
*1432 maprca/FAI_13/U4
*1433 maprca/FAI_13/U5
*1434 maprca/FAI_13/U6
*1435 maprca/FAI_14/U1
*1436 maprca/FAI_14/U2
*1437 maprca/FAI_14/U3
*1438 maprca/FAI_14/U4
*1439 maprca/FAI_14/U5
*1440 maprca/FAI_14/U6
*1441 maprca/FAI_15/U1
*1442 maprca/FAI_15/U2
*1443 maprca/FAI_15/U3
*1444 maprca/FAI_15/U4
*1445 maprca/FAI_15/U5
*1446 maprca/FAI_15/U6
*1447 maprca/FAI_16/U1
*1448 maprca/FAI_16/U2
*1449 maprca/FAI_16/U3
*1450 maprca/FAI_16/U4
*1451 maprca/FAI_16/U5
*1452 maprca/FAI_16/U6
*1453 maprca/FAI_17/U1
*1454 maprca/FAI_17/U2
*1455 maprca/FAI_17/U3
*1456 maprca/FAI_17/U4
*1457 maprca/FAI_17/U5
*1458 maprca/FAI_17/U6
*1459 maprca/FAI_18/U1
*1460 maprca/FAI_18/U2
*1461 maprca/FAI_18/U3
*1462 maprca/FAI_18/U4
*1463 maprca/FAI_18/U5
*1464 maprca/FAI_18/U6
*1465 maprca/FAI_19/U1
*1466 maprca/FAI_19/U2
*1467 maprca/FAI_19/U3
*1468 maprca/FAI_19/U4
*1469 maprca/FAI_19/U5
*1470 maprca/FAI_19/U6
*1471 maprca/FAI_20/U1
*1472 maprca/FAI_20/U2
*1473 maprca/FAI_20/U3
*1474 maprca/FAI_20/U4
*1475 maprca/FAI_20/U5
*1476 maprca/FAI_20/U6
*1477 maprca/FAI_21/U1
*1478 maprca/FAI_21/U2
*1479 maprca/FAI_21/U3
*1480 maprca/FAI_21/U4
*1481 maprca/FAI_21/U5
*1482 maprca/FAI_21/U6
*1483 maprca/FAI_22/U1
*1484 maprca/FAI_22/U2
*1485 maprca/FAI_22/U3
*1486 maprca/FAI_22/U4
*1487 maprca/FAI_22/U5
*1488 maprca/FAI_22/U6
*1489 maprca/FAI_23/U1
*1490 maprca/FAI_23/U2
*1491 maprca/FAI_23/U3
*1492 maprca/FAI_23/U4
*1493 maprca/FAI_23/U5
*1494 maprca/FAI_23/U6
*1495 maprca/FAI_24/U1
*1496 maprca/FAI_24/U2
*1497 maprca/FAI_24/U3
*1498 maprca/FAI_24/U4
*1499 maprca/FAI_24/U5
*1500 maprca/FAI_24/U6
*1501 maprca/FAI_25/U3
*1502 maprca/FAI_25/U1
*1503 maprca/FAI_25/U2
*1504 maprca/FAI_25/U4
*1505 maprca/FAI_25/U5
*1506 maprca/FAI_26/U3
*1507 maprca/FAI_26/U1
*1508 maprca/FAI_26/U2
*1509 maprca/FAI_26/U4
*1510 maprca/FAI_26/U5
*1511 maprca/FAI_27/U3
*1512 maprca/FAI_27/U1
*1513 maprca/FAI_27/U2
*1514 maprca/FAI_27/U4
*1515 maprca/FAI_27/U5
*1516 maprca/FAI_28/U3
*1517 maprca/FAI_28/U1
*1518 maprca/FAI_28/U2
*1519 maprca/FAI_28/U4
*1520 maprca/FAI_28/U5
*1521 maprca/FAI_29/U3
*1522 maprca/FAI_29/U1
*1523 maprca/FAI_29/U2
*1524 maprca/FAI_29/U4
*1525 maprca/FAI_29/U5
*1526 maprca/FAI_30/U3
*1527 maprca/FAI_30/U1
*1528 maprca/FAI_30/U2
*1529 maprca/FAI_30/U4
*1530 maprca/FAI_30/U5
*1531 maprca/FAI_31/U3
*1532 maprca/FAI_31/U1
*1533 maprca/FAI_31/U2
*1534 maprca/FAI_31/U4
*1535 maprca/FAI_31/U5
*1536 maprca/FAI_32/U3
*1537 maprca/FAI_32/U1
*1538 maprca/FAI_32/U2
*1539 maprca/FAI_32/U4
*1540 maprca/FAI_32/U5
*1541 maprca/FAI_33/U3
*1542 maprca/FAI_33/U1
*1543 maprca/FAI_33/U2
*1544 maprca/FAI_33/U4
*1545 maprca/FAI_33/U5
*1546 maprca/FAI_34/U3
*1547 maprca/FAI_34/U1
*1548 maprca/FAI_34/U2
*1549 maprca/FAI_34/U4
*1550 maprca/FAI_34/U5
*1551 maprca/FAI_35/U3
*1552 maprca/FAI_35/U1
*1553 maprca/FAI_35/U2
*1554 maprca/FAI_35/U4
*1555 maprca/FAI_35/U5
*1556 maprca/FAI_36/U3
*1557 maprca/FAI_36/U1
*1558 maprca/FAI_36/U2
*1559 maprca/FAI_36/U4
*1560 maprca/FAI_36/U5
*1561 maprca/FAI_37/U3
*1562 maprca/FAI_37/U1
*1563 maprca/FAI_37/U2
*1564 maprca/FAI_37/U4
*1565 maprca/FAI_37/U5
*1566 maprca/FAI_38/U3
*1567 maprca/FAI_38/U1
*1568 maprca/FAI_38/U2
*1569 maprca/FAI_38/U4
*1570 maprca/FAI_38/U5
*1571 maprca/FAI_39/U3
*1572 maprca/FAI_39/U1
*1573 maprca/FAI_39/U2
*1574 maprca/FAI_39/U4
*1575 maprca/FAI_39/U5
*1576 maprca/FAI_40/U3
*1577 maprca/FAI_40/U1
*1578 maprca/FAI_40/U2
*1579 maprca/FAI_40/U4
*1580 maprca/FAI_40/U5
*1581 maprca/FAI_41/U3
*1582 maprca/FAI_41/U1
*1583 maprca/FAI_41/U2
*1584 maprca/FAI_41/U4
*1585 maprca/FAI_41/U5
*1586 maprca/FAI_42/U3
*1587 maprca/FAI_42/U1
*1588 maprca/FAI_42/U2
*1589 maprca/FAI_42/U4
*1590 maprca/FAI_42/U5
*1591 maprca/FAI_43/U3
*1592 maprca/FAI_43/U1
*1593 maprca/FAI_43/U2
*1594 maprca/FAI_43/U4
*1595 maprca/FAI_43/U5
*1596 maprca/FAI_44/U3
*1597 maprca/FAI_44/U1
*1598 maprca/FAI_44/U2
*1599 maprca/FAI_44/U4
*1600 maprca/FAI_44/U5
*1601 maprca/FAI_45/U3
*1602 maprca/FAI_45/U1
*1603 maprca/FAI_45/U2
*1604 maprca/FAI_45/U4
*1605 maprca/FAI_45/U5
*1606 maprca/FAI_46/U3
*1607 maprca/FAI_46/U1
*1608 maprca/FAI_46/U2
*1609 maprca/FAI_46/U4
*1610 maprca/FAI_46/U5
*1611 maprca/FAI_47/U3
*1612 maprca/FAI_47/U1
*1613 maprca/FAI_47/U2
*1614 maprca/FAI_47/U4
*1615 maprca/FAI_47/U5
*1616 maprca/FAI_48/U3
*1617 maprca/FAI_48/U1
*1618 maprca/FAI_48/U2
*1619 maprca/FAI_48/U4
*1620 maprca/FAI_48/U5
*1621 maprca/FAI_49/U3
*1622 maprca/FAI_49/U1
*1623 maprca/FAI_49/U2
*1624 maprca/FAI_49/U4
*1625 maprca/FAI_49/U5
*1626 maprca/FAI_50/U3
*1627 maprca/FAI_50/U1
*1628 maprca/FAI_50/U2
*1629 maprca/FAI_50/U4
*1630 maprca/FAI_50/U5
*1631 maprca/FAI_51/U3
*1632 maprca/FAI_51/U1
*1633 maprca/FAI_51/U2
*1634 maprca/FAI_51/U4
*1635 maprca/FAI_51/U5
*1636 maprca/FAI_52/U3
*1637 maprca/FAI_52/U1
*1638 maprca/FAI_52/U2
*1639 maprca/FAI_52/U4
*1640 maprca/FAI_52/U5
*1641 maprca/FAI_53/U3
*1642 maprca/FAI_53/U1
*1643 maprca/FAI_53/U2
*1644 maprca/FAI_53/U4
*1645 maprca/FAI_53/U5
*1646 maprca/FAI_54/U3
*1647 maprca/FAI_54/U1
*1648 maprca/FAI_54/U2
*1649 maprca/FAI_54/U4
*1650 maprca/FAI_54/U5
*1651 maprca/FAI_55/U3
*1652 maprca/FAI_55/U1
*1653 maprca/FAI_55/U2
*1654 maprca/FAI_55/U4
*1655 maprca/FAI_55/U5
*1656 maprca/FAI_56/U3
*1657 maprca/FAI_56/U1
*1658 maprca/FAI_56/U2
*1659 maprca/FAI_56/U4
*1660 maprca/FAI_56/U5
*1661 maprca/FAI_57/U3